&HEAD CHID='WF16slow'/
&TIME T_END=980.00/
&DUMP RENDER_FILE='WF16slow.ge1', DT_PL3D=100.00, NFRAMES=1960/
&MISC TMPA=21.00, BAROCLINIC=.TRUE./
&MESH ID='MESH 1', IJK=78,102,63, XB=-3.40,4.40, -1.90,8.30, -0.1,6.20/
&MESH ID='MESH 2', IJK=84,102,63, XB=4.40,12.80, -1.90,8.30, -0.1,6.20/
&MESH ID='MESH 3', IJK=84,102,63, XB=12.80,21.20, -1.90,8.30, -0.1,6.20/
&MESH ID='MESH 4', IJK=72,102,63, XB=21.20,28.40, -1.90,8.30, -0.1,6.20/
&MESH ID='MESH 5', IJK=72,102,63, XB=28.40,35.60, -1.90,8.30, -0.1,6.20/
&MESH ID='MESH 6', IJK=78,108,63, XB=-3.40,4.40,8.30,19.10, -0.1, 6.20/
&MESH ID='MESH 7', IJK=84,108,63, XB=4.40,12.80,8.30,19.10, -0.1,6.20/
&MESH ID='MESH 8', IJK=84,108,63, XB=12.80,21.20,8.30,19.10, -0.1,6.20/
&MESH ID='MESH 9', IJK=72,108,63, XB=21.20,28.40,8.30,19.10, -0.1,6.20/
&MESH ID='MESH10', IJK=72,108,63, XB=28.40,35.60,8.30,19.10, -0.1,6.20/
&MESH ID='MESH 11', IJK=78,102,48, XB=-3.40,4.40, -1.90,8.30,6.20,11.00/
&MESH ID='MESH 12', IJK=84,102,48, XB=4.40,12.80, -1.90,8.30,6.20,11.00/
&MESH ID='MESH 13', IJK=84,102,48, XB=12.80,21.20, -1.90,8.30,6.20,11.00/
&MESH ID='MESH 14', IJK=72,102,48, XB=21.20,28.40, -1.90,8.30,6.20,11.00/
&MESH ID='MESH 15', IJK=72,102,48, XB=28.40,35.60, -1.90,8.30,6.20,11.00/
&MESH ID='MESH 16', IJK=78,108,48, XB=-3.40,4.40,8.30,19.10,6.20,11.00/
&MESH ID='MESH 17', IJK=84,108,48, XB=4.40,12.80,8.30,19.10,6.20,11.00/
&MESH ID='MESH 18', IJK=84,108,48, XB=12.80,21.20,8.30,19.10,6.20,11.00/
&MESH ID='MESH 19', IJK=72,108,48, XB=21.20,28.40,8.30,19.10,6.20,11.00/
&MESH ID='MESH 20', IJK=72,108,48, XB=28.40,35.60,8.30,19.10,6.20,11.00/
&MESH ID='MESHW1', IJK=248,27,37, XB=-21.40,53.00, -10.00, -1.90, -0.1,11.00/
&MESH ID='MESHW2', IJK=248,27,37, XB=-21.40,53.00,19.10,27.20, -0.1,11.00/
&MESH ID='MESHW3', IJK=60,70,37, XB=-21.40, -3.40, -1.90,19.10, -0.1,11.00/
&MESH ID='MESHW4', IJK=58,70,37, XB=35.60,53.00, -1.90,19.10, -0.1,11.00/
&REAC ID='Wood',
 FYI='Ritchie, et al., 5th IAFSS, C_3.4 H_6.2 O_2.5',
 C=1.00,
 H=1.70,
 O=0.74,
 N=2.00E-3,
 HEAT_OF_COMBUSTION=1.30E4/
&MATL ID='Gypsum',
 FYI='Drysdale, P. 36',
 SPECIFIC_HEAT=1.09,
 CONDUCTIVITY=0.1700,
 DENSITY=930.00/
&MATL ID='Fiberglass Insulation',
 FYI='fiberglass r13, values from engineering toolbox, cp is from glass',
 SPECIFIC_HEAT=0.84,
 CONDUCTIVITY=0.0400,
 DENSITY=14.00/
&MATL ID='DougFir',
 FYI='Ref=Spearpoint''s thesis, except cp',
 SPECIFIC_HEAT=1.80,
 CONDUCTIVITY=0.1300,
 DENSITY=502.00,
 HEAT_OF_COMBUSTION=1.30E4/
&MATL ID='Glass',
 FYI='Drysdale, P. 36',
 SPECIFIC_HEAT=0.84,
 CONDUCTIVITY=0.76,
 DENSITY=2.70E3/
&MATL ID='Cotton',
 SPECIFIC_HEAT=1.29,
 CONDUCTIVITY=0.1100,
 DENSITY=16.40,
 HEAT_OF_COMBUSTION=1.56E4/
&MATL ID='Brick',
 FYI='Drysdale, P. 36',
 SPECIFIC_HEAT=0.84,
 CONDUCTIVITY=0.69,
 DENSITY=1.60E3/
&MATL ID='Carpet',
 FYI='WTC report value',
 SPECIFIC_HEAT=4.50,
 CONDUCTIVITY=0.1600,
 DENSITY=750.00,
 HEAT_OF_COMBUSTION=2.23E4/
&SURF ID='Ceiling Gypsum',
 COLOR='TAN',
 HRRPUA=225.00,
 RAMP_Q='Ceiling Gypsum_RAMP_Q',
 IGNITION_TEMPERATURE=400.00,
 BACKING='EXPOSED',
 MATL_ID(1,1)='Gypsum',
 MATL_ID(2,1)='Fiberglass Insulation',
 MATL_MASS_FRACTION(1,1)=1.00,
 MATL_MASS_FRACTION(2,1)=1.00,
 THICKNESS(1:2)=0.0200,0.0900/
&RAMP ID='Ceiling Gypsum_RAMP_Q', T=0.00, F=0.0100/
&RAMP ID='Ceiling Gypsum_RAMP_Q', T=2.00, F=0.0200/
&RAMP ID='Ceiling Gypsum_RAMP_Q', T=3.64, F=0.1600/
&RAMP ID='Ceiling Gypsum_RAMP_Q', T=4.24, F=0.40900/
&RAMP ID='Ceiling Gypsum_RAMP_Q', T=6.67, F=0.78/
&RAMP ID='Ceiling Gypsum_RAMP_Q', T=7.88, F=1.00/
&RAMP ID='Ceiling Gypsum_RAMP_Q', T=15.76, F=0.40900/
&RAMP ID='Ceiling Gypsum_RAMP_Q', T=18.18, F=0.2600/
&RAMP ID='Ceiling Gypsum_RAMP_Q', T=24.85, F=0.1100/
&RAMP ID='Ceiling Gypsum_RAMP_Q', T=41.21, F=0.0600/
&RAMP ID='Ceiling Gypsum_RAMP_Q', T=62.42, F=0.0700/
&RAMP ID='Ceiling Gypsum_RAMP_Q', T=78.79, F=0.0700/
&SURF ID='Attic Gypsum',
 RGB=204,153,0,
 BACKING='EXPOSED',
 MATL_ID(1,1)='Fiberglass Insulation',
 MATL_ID(2,1)='Gypsum',
 MATL_MASS_FRACTION(1,1)=1.00,
 MATL_MASS_FRACTION(2,1)=1.00,
 THICKNESS(1:2)=0.0900,0.0200/
&SURF ID='Closet Burner',
 COLOR='RED',
 HRRPUA=280.00,
 RAMP_Q='Closet Burner_RAMP_Q'/
&RAMP ID='Closet Burner_RAMP_Q', T=0.00, F=0.00/
&RAMP ID='Closet Burner_RAMP_Q', T=3.00, F=1.00/
&RAMP ID='Closet Burner_RAMP_Q', T=100.00, F=1.00/
&RAMP ID='Closet Burner_RAMP_Q', T=101.00, F=0.00/
&SURF ID='Attic Burner',
 COLOR='RED',
 CONVECTIVE_HEAT_FLUX=75.00,
 RAMP_Q='Attic Burner_RAMP_Q2',
 HRRPUA=1.00E3/
&RAMP ID='Attic Burner_RAMP_Q', T=0.00, F=0.00/
&RAMP ID='Attic Burner_RAMP_Q', T=10.00, F=1.00/
&RAMP ID='Attic Burner_RAMP_Q', T=150.00, F=1.00/
&RAMP ID='Attic Burner_RAMP_Q', T=151.00, F=0.00/
&RAMP ID='Attic Burner_RAMP_Q2', T=0.00, F=0.00/
&RAMP ID='Attic Burner_RAMP_Q2', T=10.00, F=1.00/
&RAMP ID='Attic Burner_RAMP_Q2', T=150.00, F=1.00/
&RAMP ID='Attic Burner_RAMP_Q2', T=151.00, F=0.00/
&SURF ID='Gypsum',
  COLOR='TAN',
 HRRPUA=225.00,
 RAMP_Q='Gypsum_RAMP_Q',
 IGNITION_TEMPERATURE=400.00,
 MATL_ID(1,1)='Gypsum',
 MATL_MASS_FRACTION(1,1)=1.00,
 THICKNESS(1)=0.0127/
&RAMP ID='Gypsum_RAMP_Q', T=0.00, F=0.0100/
&RAMP ID='Gypsum_RAMP_Q', T=2.00, F=0.0200/
&RAMP ID='Gypsum_RAMP_Q', T=3.64, F=0.1600/
&RAMP ID='Gypsum_RAMP_Q', T=4.24, F=0.40900/
&RAMP ID='Gypsum_RAMP_Q', T=6.67, F=0.78/
&RAMP ID='Gypsum_RAMP_Q', T=7.88, F=1.00/
&RAMP ID='Gypsum_RAMP_Q', T=15.76, F=0.40900/
&RAMP ID=' Gypsum_RAMP_Q', T=18.18, F=0.2600/
&RAMP ID='Gypsum_RAMP_Q', T=24.85, F=0.1100/
&RAMP ID='Gypsum_RAMP_Q', T=41.21, F=0.0600/
&RAMP ID='Gypsum_RAMP_Q', T=62.42, F=0.0700/
&RAMP ID='Gypsum_RAMP_Q', T=78.79, F=0.0700/
&SURF ID='Closet Walls',
 FYI='Tig from Janssens, cone derived props from Spearpoint',
 RGB=146,202,166,
 TEXTURE_MAP='psm_spruce.jpg',
 TEXTURE_WIDTH=0.67,
 TEXTURE_HEIGHT=2.44,
 HRRPUA=181.39,
 RAMP_Q='Closet Walls_RAMP_Q',
 IGNITION_TEMPERATURE=384.00,
 BACKING='EXPOSED',
 MATL_ID(1,1)='DougFir',
 MATL_ID(2,1)='Gypsum',
 MATL_MASS_FRACTION(1,1)=1.00,
 MATL_MASS_FRACTION(2,1)=1.00,
 THICKNESS(1:2)=6.00E-3,0.0127/
&RAMP ID='Closet Walls_RAMP_Q', T=0.00, F=0.00/
&RAMP ID='Closet Walls_RAMP_Q', T=0.1000, F=0.00/
&RAMP ID='Closet Walls_RAMP_Q', T=0.3800, F=0.3600/
&RAMP ID='Closet Walls_RAMP_Q', T=1.61, F=0.69/
&RAMP ID='Closet Walls_RAMP_Q', T=2.52, F=0.94/
&RAMP ID='Closet Walls_RAMP_Q', T=8.19, F=1.00/
&RAMP ID=' Closet Walls_RAMP_Q', T=10.11, F=0.94/
&RAMP ID='Closet Walls_RAMP_Q', T=15.38, F=0.89/
&RAMP ID='Closet Walls_RAMP_Q', T=20.72, F=0.83/
&RAMP ID='Closet Walls_RAMP_Q', T=22.83, F=0.72/
&RAMP ID='Closet Walls_RAMP_Q', T=38.51, F=0.62/
&RAMP ID='Closet Walls_RAMP_Q', T=60.92, F=0.54/
&RAMP ID='Closet Walls_RAMP_Q', T=91.81, F=0.40600/
&RAMP ID='Closet Walls_RAMP_Q', T=127.72, F=0.40/
&RAMP ID='Closet Walls_RAMP_Q', T=171.96, F=0.3900/
&RAMP ID='Closet Walls_RAMP_Q', T=241.78, F=0.3600/
&RAMP ID='Closet Walls_RAMP_Q', T=323.44, F=0.3500/
&RAMP ID='Closet Walls_RAMP_Q', T=376.20, F=0.3300/
&RAMP ID='Closet Walls_RAMP_Q', T=442.49, F=0.3300/
&RAMP ID='Closet Walls_RAMP_Q', T=522.44, F=0.3200/
&RAMP ID='Closet Walls_RAMP_Q', T=602.31, F=0.3300/
&RAMP ID='Closet Walls_RAMP_Q', T=677.15, F=0.3200/
&RAMP ID='Closet Walls_RAMP_Q', T=784.29, F=0.3100/
&RAMP ID='Closet Walls_RAMP_Q', T=940.64, F=0.3300/
&RAMP ID='Closet Walls_RAMP_Q', T=1.0494200E3, F=0.3400/
&RAMP ID='Closet Walls_RAMP_Q', T=1.1650400E3, F=0.3400/
&RAMP ID='Closet Walls_RAMP_Q', T=1.2398600E3, F=0.3300/
&RAMP ID='Closet Walls_RAMP_Q', T=1.3435500E3, F=0.3300/
&RAMP ID='Closet Walls_RAMP_Q', T=1.4115700E3, F=0.3300/
&SURF ID='Roof Sheathing',
 RGB=153,102,0,
 HRRPUA=181.39,
 RAMP_Q='Roof Sheathing_RAMP_Q',
 IGNITION_TEMPERATURE=384.00,
 BACKING='EXPOSED',
 MATL_ID(1,1)='DougFir',
 MATL_MASS_FRACTION(1,1)=1.00,
 THICKNESS(1)=0.0190/
&RAMP ID='Roof Sheathing_RAMP_Q', T=0.00, F=0.00/
&RAMP ID='Roof Sheathing_RAMP_Q', T=0.1000, F=0.00/
&RAMP ID='Roof Sheathing_RAMP_Q', T=0.3800, F=0.3600/
&RAMP ID='Roof Sheathing_RAMP_Q', T=1.61, F=0.69/
&RAMP ID='Roof Sheathing_RAMP_Q', T=2.52, F=0.94/
&RAMP ID='Roof Sheathing_RAMP_Q', T=8.19, F=1.00/
&RAMP ID='Roof Sheathing_RAMP_Q', T=10.11, F=0.94/
&RAMP ID='Roof Sheathing_RAMP_Q', T=15.38, F=0.89/
&RAMP ID='Roof Sheathing_RAMP_Q', T=20.72, F=0.83/
&RAMP ID='Roof Sheathing_RAMP_Q', T=22.83, F=0.72/
&RAMP ID='Roof Sheathing_RAMP_Q', T=38.51, F=0.62/
&RAMP ID='Roof Sheathing_RAMP_Q', T=60.92, F=0.54/
&RAMP ID='Roof Sheathing_RAMP_Q', T=91.81, F=0.40600/
&RAMP ID='Roof Sheathing_RAMP_Q', T=127.72, F=0.40/
&RAMP ID='Roof Sheathing_RAMP_Q', T=171.96, F=0.3900/
&RAMP ID='Roof Sheathing_RAMP_Q', T=241.78, F=0.3600/
&RAMP ID='Roof Sheathing_RAMP_Q', T=323.44, F=0.3500/
&RAMP ID='Roof Sheathing_RAMP_Q', T=376.20, F=0.3300/
&RAMP ID='Roof Sheathing_RAMP_Q', T=442.49, F=0.3300/
&RAMP ID='Roof Sheathing_RAMP_Q', T=522.44, F=0.3200/
&RAMP ID='Roof Sheathing_RAMP_Q', T=602.31, F=0.3300/
&RAMP ID='Roof Sheathing_RAMP_Q', T=677.15, F=0.3200/
&RAMP ID='Roof Sheathing_RAMP_Q', T=784.29, F=0.3100/
&RAMP ID='Roof Sheathing_RAMP_Q', T=940.64, F=0.3300/
&RAMP ID='Roof Sheathing_RAMP_Q', T=1.0494200E3, F=0.3400/
&SURF ID='Wood Joists02',
  RGB=168,96,0,
 HRRPUA=181.39,
 RAMP_Q='Wood Joists02_RAMP_Q',
 IGNITION_TEMPERATURE=384.00,
 BACKING='EXPOSED',
 MATL_ID(1,1)='DougFir',
 MATL_MASS_FRACTION(1,1)=1.00,
 THICKNESS(1)=0.0380/
&RAMP ID='Wood Joists02_RAMP_Q', T=0.00, F=0.00/
&RAMP ID='Wood Joists02_RAMP_Q', T=0.1000, F=0.00/
&RAMP ID='Wood Joists02_RAMP_Q', T=0.3800, F=0.3600/
&RAMP ID='Wood Joists02_RAMP_Q', T=1.61, F=0.69/
&RAMP ID='Wood Joists02_RAMP_Q', T=2.52, F=0.94/
&RAMP ID='Wood Joists02_RAMP_Q', T=8.19, F=1.00/
&RAMP ID='Wood Joists02_RAMP_Q', T=10.11, F=0.94/
&RAMP ID='Wood Joists02_RAMP_Q', T=15.38, F=0.89/
&RAMP ID='Wood Joists02_RAMP_Q', T=20.72, F=0.83/
&RAMP ID='Wood Joists02_RAMP_Q', T=22.83, F=0.72/
&RAMP ID='Wood Joists02_RAMP_Q', T=38.51, F=0.62/
&RAMP ID='Wood Joists02_RAMP_Q', T=60.92, F=0.54/
&RAMP ID='Wood Joists02_RAMP_Q', T=91.81, F=0.40600/
&RAMP ID='Wood Joists02_RAMP_Q', T=127.72, F=0.40/
&RAMP ID='Wood Joists02_RAMP_Q', T=171.96, F=0.3900/
&RAMP ID='Wood Joists02_RAMP_Q', T=241.78, F=0.3600/
&RAMP ID='Wood Joists02_RAMP_Q', T=323.44, F=0.3500/
&RAMP ID='Wood Joists02_RAMP_Q', T=376.20, F=0.3300/
&RAMP ID='Wood Joists02_RAMP_Q', T=442.49, F=0.3300/
&RAMP ID='Wood Joists02_RAMP_Q', T=522.44, F=0.3200/
&RAMP ID='Wood Joists02_RAMP_Q', T=602.31, F=0.3300/
&RAMP ID='Wood Joists02_RAMP_Q', T=677.15, F=0.3200/
&RAMP ID='Wood Joists02_RAMP_Q', T=784.29, F=0.3100/
&RAMP ID='Wood Joists02_RAMP_Q', T=940.64, F=0.3300/
&RAMP ID='Wood Joists02_RAMP_Q', T=1.0494200E3, F=0.3400/
&SURF ID='Overhang Matl',
 RGB=204,102,0/
&SURF ID='Glass',
 RGB=0,255,255,
 TRANSPARENCY=0.60,
 BACKING='EXPOSED',
 MATL_ID(1,1)='Glass',
 MATL_MASS_FRACTION(1,1)=1.00,
 THICKNESS(1)=5.00E-3/
&SURF ID='Roof Sheathing02',
 RGB=153,102,0,
 HRRPUA=181.39,
 RAMP_Q='Roof Sheathing02_RAMP_Q',
 IGNITION_TEMPERATURE=384.00,
 TMP_INNER=100.00,
 BACKING='EXPOSED',
 MATL_ID(1,1)='DougFir',
 MATL_MASS_FRACTION(1,1)=1.00,
 THICKNESS(1)=0.0190/
&RAMP ID='Roof Sheathing02_RAMP_Q', T=0.00, F=0.00/
&RAMP ID='Roof Sheathing02_RAMP_Q', T=0.1000, F=0.00/
&RAMP ID='Roof Sheathing02_RAMP_Q', T=0.3800, F=0.3600/
&RAMP ID='Roof Sheathing02_RAMP_Q', T=1.61, F=0.69/
&RAMP ID='Roof Sheathing02_RAMP_Q', T=2.52, F=0.94/
&RAMP ID='Roof Sheathing02_RAMP_Q', T=8.19, F=1.00/
&RAMP ID='Roof Sheathing02_RAMP_Q', T=10.11, F=0.94/
&RAMP ID='Roof Sheathing02_RAMP_Q', T=15.38, F=0.89/
&RAMP ID='Roof Sheathing02_RAMP_Q', T=20.72, F=0.83/
&RAMP ID='Roof Sheathing02_RAMP_Q', T=22.83, F=0.72/
&RAMP ID='Roof Sheathing02_RAMP_Q', T=38.51, F=0.62/
&RAMP ID='Roof Sheathing02_RAMP_Q', T=60.92, F=0.54/
&RAMP ID='Roof Sheathing02_RAMP_Q', T=91.81, F=0.40600/
&RAMP ID='Roof Sheathing02_RAMP_Q', T=127.72, F=0.40/
&RAMP ID='Roof Sheathing02_RAMP_Q', T=171.96, F=0.3900/
&RAMP ID='Roof Sheathing02_RAMP_Q', T=241.78, F=0.3600/
&RAMP ID='Roof Sheathing02_RAMP_Q', T=323.44, F=0.3500/
&RAMP ID='Roof Sheathing02_RAMP_Q', T=376.20, F=0.3300/
&RAMP ID='Roof Sheathing02_RAMP_Q', T=442.49, F=0.3300/
&RAMP ID='Roof Sheathing02_RAMP_Q', T=522.44, F=0.3200/
&RAMP ID='Roof Sheathing02_RAMP_Q', T=602.31, F=0.3300/
&RAMP ID='Roof Sheathing02_RAMP_Q', T=677.15, F=0.3200/
&RAMP ID='Roof Sheathing02_RAMP_Q', T=784.29, F=0.3100/
&RAMP ID='Roof Sheathing02_RAMP_Q', T=940.64, F=0.3300/
&RAMP ID='Roof Sheathing02_RAMP_Q', T=1.0494200E3, F=0.3400/
&SURF ID='Vent Flow',
 RGB=51,51,204,
 VOLUME_FLUX=0.1750,
 POROUS=.TRUE./
&SURF ID='Cotton',
 RGB=153,153,0,
 MLRPUA=0.0144,
 RAMP_Q='Cotton_RAMP_Q',
 IGNITION_TEMPERATURE=265.00,
 BURN_AWAY=.TRUE.,
 BACKING='EXPOSED',
 MATL_ID(1,1)='Cotton',
 MATL_MASS_FRACTION(1,1)=1.00,
 THICKNESS(1)=0.1000/
&RAMP ID='Cotton_RAMP_Q', T=0.00, F=0.00/
&RAMP ID='Cotton_RAMP_Q', T=5.00, F=0.0107/
&RAMP ID='Cotton_RAMP_Q', T=15.00, F=0.0106/
&RAMP ID='Cotton_RAMP_Q', T=16.00, F=0.1403/
&RAMP ID='Cotton_RAMP_Q', T=21.00, F=1.00/
&RAMP ID='Cotton_RAMP_Q', T=36.00, F=0.99/
&RAMP ID='Cotton_RAMP_Q', T=51.00, F=0.81/
&RAMP ID='Cotton_RAMP_Q', T=74.00, F=0.64/
&RAMP ID='Cotton_RAMP_Q', T=86.00, F=0.61/
&RAMP ID='Cotton_RAMP_Q', T=106.00, F=0.80/
&RAMP ID='Cotton_RAMP_Q', T=123.00, F=0.85/
&RAMP ID='Cotton_RAMP_Q', T=161.00, F=0.75/
&RAMP ID='Cotton_RAMP_Q', T=222.00, F=0.2074/
&RAMP ID='Cotton_RAMP_Q', T=279.00, F=0.0390/
&RAMP ID='Cotton_RAMP_Q', T=307.00, F=0.0385/
&RAMP ID='Cotton_RAMP_Q', T=324.00, F=5.8067250E-3/
&RAMP ID='Cotton_RAMP_Q', T=324.14, F=5.8067250E-3/
&SURF ID='shelf',
 RGB=153,102,0,
 MATL_ID(1,1)='DougFir',
 MATL_MASS_FRACTION(1,1)=1.00,
 THICKNESS(1)=0.0130/
&SURF ID='Brick',
 RGB=102,0,0,
 TEXTURE_MAP='psm_brick.jpg',
 TEXTURE_WIDTH=0.81,
 TEXTURE_HEIGHT=0.81,
 MATL_ID(1,1)='Brick',
 MATL_MASS_FRACTION(1,1) =1.00,
 THICKNESS(1)=0.0900/
&SURF ID='CouchBurner',
 FYI='HRR input determined from Couch Room Burn #19 data from UCF June 2010 LFL experiments',
 COLOR='RED',
 HRRPUA=498.00,
 RAMP_Q='CouchBurner_RAMP_Q'/
&RAMP ID='CouchBurner_RAMP_Q', T=0.00, F=0.00/
&RAMP ID='CouchBurner_RAMP_Q', T=300.00, F=0.00/
&RAMP ID='CouchBurner_RAMP_Q', T=320.00, F=0.0246/
&RAMP ID='CouchBurner_RAMP_Q', T=340.00, F=0.0769/
&RAMP ID='CouchBurner_RAMP_Q', T=360.00, F=0.1384/
&RAMP ID='CouchBurner_RAMP_Q', T=380.00, F=0.1787/
&RAMP ID='CouchBurner_RAMP_Q', T=400.00, F=0.51/
&RAMP ID='CouchBurner_RAMP_Q', T=420.00, F=0.84/
&RAMP ID='CouchBurner_RAMP_Q', T=440.00, F=0.74/
&RAMP ID='CouchBurner_RAMP_Q', T=460.00, F=0.72/
&RAMP ID='CouchBurner_RAMP_Q', T=480.00, F=0.85/
&RAMP ID='CouchBurner_RAMP_Q', T=500.00, F=1.00/
&RAMP ID='CouchBurner_RAMP_Q', T=520.00, F=0.91/
&RAMP ID='CouchBurner_RAMP_Q', T=540.00, F=0.94/
&RAMP ID='CouchBurner_RAMP_Q', T=560.00, F=0.87/
&RAMP ID='CouchBurner_RAMP_Q', T=580.00, F=0.83/
&RAMP ID='CouchBurner_RAMP_Q', T=600.00, F=0.77/
&RAMP ID='CouchBurner_RAMP_Q', T=620.00, F=0.67/
&RAMP ID='CouchBurner_RAMP_Q', T=640.00, F=0.57/
&RAMP ID='CouchBurner_RAMP_Q', T=660.00, F=0.53/
&RAMP ID='CouchBurner_RAMP_Q', T=680.00, F=0.40411/
&RAMP ID='CouchBurner_RAMP_Q', T=700.00, F=0.3767/
&RAMP ID='CouchBurner_RAMP_Q', T=720.00, F=0.3381/
&RAMP ID='CouchBurner_RAMP_Q', T=740.00, F=0.3075/
&RAMP ID='CouchBurner_RAMP_Q', T=760.00, F=0.2738/
&RAMP ID='CouchBurner_RAMP_Q', T=780.00, F=0.2310/
&RAMP ID='CouchBurner_RAMP_Q', T=800.00, F=0.1974/
&RAMP ID='CouchBurner_RAMP_Q', T=820.00, F=0.1766/
&RAMP ID='CouchBurner_RAMP_Q', T=840.00, F=0.1618/
&RAMP ID='CouchBurner_RAMP_Q', T=860.00, F=0.1457/
&RAMP ID='CouchBurner_RAMP_Q', T=880.00, F=0.1410/
&RAMP ID='CouchBurner_RAMP_Q', T=900.00, F=0.1555/
&RAMP ID='CouchBurner_RAMP_Q', T=920.00, F=0.1453/
&RAMP ID='CouchBurner_RAMP_Q', T=940.00, F=0.1379/
&RAMP ID='CouchBurner_RAMP_Q', T=960.00, F=0.1282/
&RAMP ID='CouchBurner_RAMP_Q', T=980.00, F=0.1328/
&RAMP ID='CouchBurner_RAMP_Q', T=1.00E3, F=0.1193/
&SURF ID='Sofa',
 RGB=51,51,255,
 BACKING='EXPOSED',
 MATL_ID(1,1)='Fiberglass Insulation',
 MATL_MASS_FRACTION(1,1)=1.00,
 THICKNESS(1)=0.1000/
&SURF ID='CouchBurner2',
 FYI='HRR input determined from Couch Room Burn #19 data from UCF June 2010 LFL experiments',
 COLOR='RED',
 HRRPUA=498.00,
 RAMP_Q='CouchBurner2_RAMP_Q'/
&RAMP ID='CouchBurner2_RAMP_Q', T=0.00, F=0.00/
&RAMP ID='CouchBurner2_RAMP_Q', T=640.00, F=0.00/
&RAMP ID='CouchBurner2_RAMP_Q', T=660.00, F=0.0246/
&RAMP ID='CouchBurner2_RAMP_Q', T=680.00, F=0.0769/
&RAMP ID='CouchBurner2_RAMP_Q', T=700.00, F=0.1384/
&RAMP ID='CouchBurner2_RAMP_Q', T=720.00, F=0.1787/
&RAMP ID='CouchBurner2_RAMP_Q', T=740.00, F=0.51/
&RAMP ID='CouchBurner2_RAMP_Q', T=760.00, F=0.84/
&RAMP ID='CouchBurner2_RAMP_Q', T=780.00, F=0.74/
&RAMP ID='CouchBurner2_RAMP_Q', T=800.00, F=0.72/
&RAMP ID='CouchBurner2_RAMP_Q', T=820.00, F=0.85/
&RAMP ID='CouchBurner2_RAMP_Q', T=840.00, F=1.00/
&RAMP ID='CouchBurner2_RAMP_Q', T=860.00, F=0.91/
&RAMP ID='CouchBurner2_RAMP_Q', T=880.00, F=0.94/
&RAMP ID='CouchBurner2_RAMP_Q', T=900.00, F=0.87/
&RAMP ID='CouchBurner2_RAMP_Q', T=920.00, F=0.83/
&RAMP ID='CouchBurner2_RAMP_Q', T=940. 00, F=0.77/
&RAMP ID='CouchBurner2_RAMP_Q', T=960.00, F=0.67/
&RAMP ID='CouchBurner2_RAMP_Q', T=980.00, F=0.57/
&RAMP ID='CouchBurner2_RAMP_Q', T=1.00E3, F=0.53/
&RAMP ID='CouchBurner2_RAMP_Q', T=1.02E3, F=0.40411/
&RAMP ID='CouchBurner2_RAMP_Q', T=1.04E3, F=0.3767/
&RAMP ID='CouchBurner2_RAMP_Q', T=1.06E3, F=0.3381/
&RAMP ID='CouchBurner2_RAMP_Q', T=1.08E3, F=0.3075/
&RAMP ID='CouchBurner2_RAMP_Q', T=1.10E3, F=0.2738/
&RAMP ID='CouchBurner2_RAMP_Q', T=1.12E3, F=0.2310/
&RAMP ID='CouchBurner2_RAMP_Q', T=1.14E3, F=0.1974/
&RAMP ID='CouchBurner2_RAMP_Q', T=1.16E3, F=0.1766/
&RAMP ID='CouchBurner2_RAMP_Q', T=1.18E3, F=0.1618/
&RAMP ID='CouchBurner2_RAMP_Q', T=1.20E3, F=0.1457/
&RAMP ID='CouchBurner2_RAMP_Q', T=1.22E3, F=0.1410/
&RAMP ID='CouchBurner2_RAMP_Q', T=1.24E3, F=0.1555/
&RAMP ID='CouchBurner2_RAMP_Q', T=1.26E3, F=0.1453/
&RAMP ID='CouchBurner2_RAMP_Q', T=1.28E3, F=0.1379/
&RAMP ID='CouchBurner2_RAMP_Q', T=1.30E3, F=0.1282/
&RAMP ID='CouchBurner2_RAMP_Q', T=1.32E3, F=0.1328/
&RAMP ID='CouchBurner2_RAMP_Q', T=1.34E3, F=0.1193/
&RAMP ID='CouchBurner2_RAMP_Q', T=1.36E3, F=0.1354/
&RAMP ID='CouchBurner2_RAMP_Q', T=1.38E3, F=0.1159/
&RAMP ID='CouchBurner2_RAMP_Q', T=1.40E3, F=0.1172/
&RAMP ID='CouchBurner2_RAMP_Q', T=1.42E3, F=0.1155/
&RAMP ID='CouchBurner2_RAMP_Q', T=1.44E3, F=0.1168/
&RAMP ID='CouchBurner2_RAMP_Q', T=1.46E3, F=0.1035/
&RAMP ID='CouchBurner2_RAMP_Q', T=1.48E3, F=0.1200/
&RAMP ID='CouchBurner2_RAMP_Q', T=1.50E3, F=0.1191/
&RAMP ID='CouchBurner2_RAMP_Q', T=1.52E3, F=0.1181/
&SURF ID='Wood Floor',
 RGB=153,102,0,
 TEXTURE_MAP='psm_wood2.jpg',
 TEXTURE_WIDTH=0.61,
 TEXTURE_HEIGHT=0.61,
 HRRPUA=181.39,
 RAMP_Q='Wood Floor_RAMP_Q',
 IGNITION_TEMPERATURE=384.00,
 BACKING='EXPOSED',
 MATL_ID(1,1)='DougFir',
 MATL_MASS_FRACTION(1,1)=1.00,
 THICKNESS(1)=0.0190/
&RAMP ID='Wood Floor_RAMP_Q', T=0.00, F=0.00/
&RAMP ID='Wood Floor_RAMP_Q', T=0.1000, F=0.00/
&RAMP ID='Wood Floor_RAMP_Q', T=0.3800, F=0.3600/
&RAMP ID='Wood Floor_RAMP_Q', T=1.61, F=0.69/
&RAMP ID='Wood Floor_RAMP_Q', T=2.52, F=0.94/
&RAMP ID='Wood Floor_RAMP_Q', T=8.19, F=1.00/
&RAMP ID='Wood Floor_RAMP_Q', T=10.11, F=0.94/
&RAMP ID='Wood Floor_RAMP_Q', T=15.38, F=0.89/
&RAMP ID='Wood Floor_RAMP_Q', T=20.72, F=0.83/
&RAMP ID='Wood Floor_RAMP_Q', T=22.83, F=0.72/
&RAMP ID='Wood Floor_RAMP_Q', T=38.51, F=0.62/
&RAMP ID='Wood Floor_RAMP_Q', T=60.92, F=0.54/
&RAMP ID='Wood Floor_RAMP_Q', T=91.81, F=0.40600/
&RAMP ID='Wood Floor_RAMP_Q', T=127.72, F=0.40/
&RAMP ID='Wood Floor_RAMP_Q', T=171.96, F=0.3900/
&RAMP ID='Wood Floor_RAMP_Q', T=241.78, F=0.3600/
&RAMP ID='Wood Floor_RAMP_Q', T=323.44, F=0.3500/
&RAMP ID='Wood Floor_RAMP_Q', T=376.20, F=0.3300/
&RAMP ID='Wood Floor_RAMP_Q', T=442.49, F=0.3300/
&RAMP ID='Wood Floor_RAMP_Q', T=522.44, F=0.3200/
&RAMP ID='Wood Floor_RAMP_Q', T=602.31, F=0.3300/
&RAMP ID='Wood Floor_RAMP_Q', T=677.15, F=0.3200/
&RAMP ID='Wood Floor_RAMP_Q', T=784.29, F=0.3100/
&RAMP ID='Wood Floor_RAMP_Q', T=940.64, F=0.3300/
&RAMP ID='Wood Floor_RAMP_Q', T=1.0494200E3, F=0.3400/
&RAMP ID='Wood Floor_RAMP_Q', T=1.1650400E3, F=0.3400/
&RAMP ID='Wood Floor_RAMP_Q', T=1.2398600E3, F=0.3300/
&RAMP ID='Wood Floor_RAMP_Q', T=1.3435500E3, F=0.3300/
&RAMP ID='Wood Floor_RAMP_Q', T=1.4115700E3, F=0.3300/
&SURF ID='Tile',
 TEXTURE_MAP='tantile.jpg',
 TEXTURE_WIDTH=0.1000,
 TEXTURE_HEIGHT=0.1000/
&SURF ID='Carpet',
 RGB=153,102,0,
 TEXTURE_MAP='creamcarpet.jpg',
 MATL_ID(1,1)='Carpet',
 MATL_MASS_FRACTION(1,1)=1.00,
 THICKNESS(1)=6.00E-3/
&SURF ID='Concrete',
 COLOR='GRAY 80'/
&SURF ID='Wood Joists',
 RGB=168,96,0,
 HRRPUA=181.39,
 RAMP_Q='Wood Joists_RAMP_Q',
 IGNITION_TEMPERATURE=384.00,
 BACKING='EXPOSED',
 MATL_ID(1,1)='DougFir',
 MATL_MASS_FRACTION(1,1)=1.00,
 THICKNESS(1)=0.0380/
&RAMP ID='Wood Joists_RAMP_Q', T=0.00, F=0.00/
&RAMP ID='Wood Joists_RAMP_Q', T=0.1000, F=0.00/
&RAMP ID='Wood Joists_RAMP_Q', T=0.3800, F=0.3600/
&RAMP ID='Wood Joists_RAMP_Q', T=1.61, F=0.69/
&RAMP ID='Wood Joists_RAMP_Q', T=2.52, F=0.94/
&RAMP ID='Wood Joists_RAMP_Q', T=8.19, F=1.00/
&RAMP ID='Wood Joists_RAMP_Q', T=10.11, F=0.94/
&RAMP ID='Wood Joists_RAMP_Q', T=15.38, F=0.89/
&RAMP ID='Wood Joists_RAMP_Q', T=20.72, F=0.83/
&RAMP ID='Wood Joists_RAMP_Q', T=22.83, F=0.72/
&RAMP ID='Wood Joists_RAMP_Q', T=38.51, F=0.62/
&RAMP ID='Wood Joists_RAMP_Q', T=60.92, F=0.54/
&RAMP ID='Wood Joists_RAMP_Q', T=91.81, F=0.40600/
&RAMP ID='Wood Joists_RAMP_Q', T=127.72, F=0.40/
&RAMP ID='Wood Joists_RAMP_Q', T=171.96, F=0.3900/
&RAMP ID='Wood Joists_RAMP_Q', T=241.78, F=0.3600/
&RAMP ID='Wood Joists_RAMP_Q', T=323.44, F=0.3500/
&RAMP ID='Wood Joists_RAMP_Q', T=376.20, F=0.3300/
&RAMP ID='Wood Joists_RAMP_Q', T=442.49, F=0.3300/
&RAMP ID='Wood Joists_RAMP_Q', T=522.44, F=0.3200/
&RAMP ID='Wood Joists_RAMP_Q', T=602.31, F=0.3300/
&RAMP ID='Wood Joists_RAMP_Q', T=677.15, F=0.3200/
&RAMP ID='Wood Joists_RAMP_Q', T=784.29, F=0.3100/
&RAMP ID='Wood Joists_RAMP_Q', T=940.64, F=0.3300/
&RAMP ID='Wood Joists_RAMP_Q', T=1.0494200E3, F=0.3400/
&RAMP ID='Wood Joists_RAMP_Q', T=1.1650400E3, F=0.3400/
&RAMP ID='Wood Joists_RAMP_Q', T=1.2398600E3, F=0.3300/
&RAMP ID='Wood Joists_RAMP_Q', T=1.3435500E3, F=0.3300/
&RAMP ID='Wood Joists_RAMP_Q', T=1.4115700E3, F=0.3300/
&SURF ID='INTERIORDOOR',
 RGB=146,202,166,
 HRRPUA=181.39,
 RAMP_Q='INTERIORDOOR_RAMP_Q',
 IGNITION_TEMPERATURE=384.00,
 MATL_ID(1,1)='DougFir',
 MATL_MASS_FRACTION(1,1)=1.00,
 THICKNESS(1)=5.00E-3/
&RAMP ID='INTERIORDOOR_RAMP_Q', T=0.00, F=0.00/
&RAMP ID='INTERIORDOOR_RAMP_Q', T=0.1000, F=0.00/
&RAMP ID='INTERIORDOOR_RAMP_Q', T=0.3800, F=0.3600/
&RAMP ID='INTERIORDOOR_RAMP_Q', T=1.61, F=0.69/
&RAMP ID='INTERIORDOOR_RAMP_Q', T=2.52, F=0.94/
&RAMP ID='INTERIORDOOR_RAMP_Q', T=8.19, F=1.00/
&RAMP ID='INTERIORDOOR_RAMP_Q', T=10.11, F=0.94/
&RAMP ID='INTERIORDOOR_RAMP_Q', T=15.38, F=0.89/
&RAMP ID='INTERIORDOOR_RAMP_Q', T=20.72, F=0.83/
&RAMP ID='INTERIORDOOR_RAMP_Q', T=22.83, F=0.72/
&RAMP ID='INTERIORDOOR_RAMP_Q', T=38.51, F=0.62/
&RAMP ID='INTERIORDOOR_RAMP_Q', T=60.92, F=0.54/
&RAMP ID='INTERIORDOOR_RAMP_Q', T=91.81, F=0.40600/
&RAMP ID='INTERIORDOOR_RAMP_Q', T=127.72, F=0.40/
&RAMP ID='INTERIORDOOR_RAMP_Q', T=171.96, F=0.3900/
&RAMP ID='INTERIORDOOR_RAMP_Q', T=241.78, F=0.3600/
&RAMP ID='INTERIORDOOR_RAMP_Q', T=323.44, F=0.3500/
&RAMP ID='INTERIORDOOR_RAMP_Q', T=376.20, F=0.3300/
&RAMP ID='INTERIORDOOR_RAMP_Q', T=442.49, F=0.3300/
&RAMP ID='INTERIORDOOR_RAMP_Q', T=522.44, F=0.3200/
&RAMP ID='INTERIORDOOR_RAMP_Q', T=602.31, F=0.3300/
&RAMP ID='INTERIORDOOR_RAMP_Q', T=677.15, F=0.3200/
&RAMP ID='INTERIORDOOR_RAMP_Q', T=784.29, F=0.3100/
&RAMP ID='INTERIORDOOR_RAMP_Q', T=940.64, F=0.3300/
&RAMP ID='INTERIORDOOR_RAMP_Q', T=1.0494200E3, F=0.3400/
&RAMP ID='INTERIORDOOR_RAMP_Q', T=1.1650400E3, F=0.3400/
&RAMP ID='INTERIORDOOR_RAMP_Q', T=1.2398600E3, F=0.3300/
&RAMP ID='INTERIORDOOR_RAMP_Q', T=1.3435500E3, F=0.3300/
&RAMP ID='INTERIORDOOR_RAMP_Q', T=1.4115700E3, F=0.3300/
&SURF ID='Wind',
 RGB=51,51,204,
 VEL=-4. 47,
 POROUS=.TRUE./
&DEVC ID='HRR', QUANTITY='HRR', XB=-1.60,33.90,0.2000,18.60,2.50,6.00/
&DEVC ID='TwallCouch2', QUANTITY='WALL TEMPERATURE', XYZ=18.30,13.10,0.60, IOR=-2, SETPOINT=265.00/
&DEVC ID='TwallDen', QUANTITY='WALL TEMPERATURE', XYZ=20.20, 8.10,3.20, IOR=-1/
&DEVC ID='TIMER', QUANTITY='TIME', XYZ=0.00,0.00,0.00, SETPOINT=800.00, INITIAL_STATE=.TRUE./
&DEVC ID='TIMER2', QUANTITY='TIME', XYZ=0.00,0.00,0.00, SETPOINT=590.00, INITIAL_STATE=.TRUE./
&DEVC ID='TIMER22', QUANTITY='TIME', XYZ=0.00,0.00,0.00, SETPOINT=860.00, INITIAL_STATE=.TRUE./
&DEVC ID='TIMER3', QUANTITY='TIME', XYZ=0.00,0.00,0.00, SETPOINT=855.00, INITIAL_STATE=.TRUE./
&DEVC ID='TIMER4', QUANTITY='TIME', XYZ=0.00,0.00,0.00, SETPOINT=720.00, INITIAL_STATE=.TRUE./
&DEVC ID='TIMER5', QUANTITY='TIME', XYZ=0.00,0.00,0.00, SETPOINT=500.00, INITIAL_STATE=.TRUE./
&OBST XB=20.20,20.50,4.40,5.20,2.40,2.50, RGB=51,51,255, PERMIT_HOLE=.FALSE., SURF_IDS='Attic Gypsum','Ceiling Gypsum','Ceiling
Gypsum', DEVC_ID='TIMER'/ Ceiling_RoofPunch
&OBST XB=20.80,21.10,4.40,5.20,2.40,2.50, RGB=51,51,255, PERMIT_HOLE=.FALSE., SURF_IDS='Attic Gypsum','Ceiling Gypsum','Ceiling
Gypsum', DEVC_ID='TIMER'/ Ceiling_RoofPunch
&OBST XB=20.30,21.50,13.60,17.40,2.40,2.50, SURF_ID='Attic Gypsum'/ Ceiling
&OBST XB=23.70,24.20,6.50,7.00,2.40,2.50, PERMIT_HOLE=.FALSE., SURF_IDS='Attic Burner','INERT','Closet Burner'/ Ceiling_Burner
&OBST XB=21.70,22.40,7.40,8.10,2.40,2.50, COLOR='BLUE', PERMIT_HOLE=.FALSE., SURF_IDS='Attic Gypsum','Gypsum','Gypsum',
DEVC_ID='TIMER'/ Ceiling_E36 Pull
&OBST XB=22.60,24.90,5.60,7.80,2.40,2.50, SURF_IDS='Attic Gypsum','Ceiling Gypsum','Closet Walls'/ Ceiling_Closet
&OBST XB=21.50,22.60,3.40,7.80,2.40,2.50, SURF_IDS='Attic Gypsum','Ceiling Gypsum','Ceiling Gypsum'/ Ceiling_Default
&OBST XB=22.60,24.90,3.40,5.60,2.40,2.50, SURF_IDS='Attic Gypsum','Ceiling Gypsum','Ceiling Gypsum'/ Ceiling_Default
&OBST XB=30.80,33.40,0.40,4.70,2.40,2.50, SURF_ID6='Gypsum','Gypsum','Roof Sheathing','Wood Joists02','Ceiling Gypsum','Attic
Gypsum'/ Ceiling_Default1
&OBST XB=30.80,33.30,7.60,9.80,2.00,2.10, SURF_ID6='Gypsum','Gypsum','Wood Joists02','Roof Sheathing','Ceiling Gypsum','Attic
Gypsum'/ Ceiling_Default2
&OBST XB=24.90,30.80,0.40,17.40,2.40,2.50, SURF_ID6='Gypsum','Roof Sheathing','Gypsum','Roof Sheathing','Ceiling Gypsum','Attic
Gypsum'/ Ceiling_Default3
&OBST XB=21.50,24.90,7.80,17.40,2.40,2.50, SURF_ID6='Gypsum','Gypsum','Gypsum','Roof Sheathing','Ceiling Gypsum','Attic Gypsum'/
Ceiling_Default4
&OBST XB=20.20,21.50,2.10,13.60,2.40,2.50, SURF_ID6='Gypsum','Gypsum','Gypsum','Roof Sheathing','Ceiling Gypsum','Attic Gypsum'/
Ceiling_Default5
&OBST XB=15.30,20.20,2.10,7.70,2.40,2.50, SURF_IDS='Attic Gypsum','Gypsum','Ceiling Gypsum'/ Ceiling_Default6
&OBST XB=2.60,15.30,2.10,12.10,2.40,2.50, SURF_IDS='Attic Gypsum','Gypsum','Ceiling Gypsum'/ Ceiling_Default7
&OBST XB=2.60,15.30,12.10,15.00,2.40,2.50, SURF_ID6='Roof Sheathing','Wood Joists02','Gypsum','Roof Sheathing','Ceiling
Gypsum','Attic Gypsum'/ Ceiling_Default8
&OBST XB=0.2000,2.60,2.10,12.10,2.40,2.50, SURF_ID6='Wood Joists02','Gypsum','Gypsum','Roof Sheathing','Ceiling Gypsum','Attic
Gypsum'/ Ceiling_Default9
&OBST XB=15.30,20.30,11.60,12.00,2.50,2.60, SURF_IDS='Attic Gypsum','Gypsum','Ceiling Gypsum'/ Ceiling_LivRm_Vaulted1
&OBST XB=15.30,20.30, 11.20,11.60,2.60,2.70, SURF_IDS='Attic Gypsum','Gypsum','Ceiling Gypsum'/ Ceiling_LivRm_Vaulted2
&OBST XB=15.30,20.30,10.80,11.20,2.70,2.80, SURF_IDS='Attic Gypsum','Gypsum','Ceiling Gypsum'/ Ceiling_LivRm_Vaulted3
&OBST XB=15.30,20.30,10.400,10.80,2.80,2. 90, SURF_IDS='Attic Gypsum','Gypsum','Ceiling Gypsum'/ Ceiling_LivRm_Vaulted4
&OBST XB=15.30,20.30,10.00,10.400,2.90,3.00, SURF_IDS='Attic Gypsum','Gypsum','Ceiling Gypsum'/ Ceiling_LivRm_Vaulted5
&OBST XB=15.30,20.30,9.60,10.00,3.00,3.10, SURF_IDS='Attic Gypsum','Gypsum','Ceiling Gypsum'/ Ceiling_LivRm_Vaulted6
&OBST XB=15.30,20.30,9.20,9.60,3.10,3.20, SURF_IDS='Attic Gypsum','Gypsum','Ceiling Gypsum'/ Ceiling_LivRm_Vaulted7
&OBST XB=15.30,20.30,8.80,9.20,3.20,3.30, SURF_IDS='Attic Gypsum','Gypsum','Ceiling Gypsum'/ Ceiling_LivRm_Vaulted8
&OBST XB=15.30,20.30,8.40,8.80,3.30,3.40, SURF_IDS='Attic Gypsum','Gypsum','Ceiling Gypsum'/ Ceiling_LivRm_Vaulted9
&OBST XB=15.30,20.30,8.00,8.40,3.40,3.50, SURF_IDS='Attic Gypsum','Gypsum','Ceiling Gypsum'/ Ceiling_LivRm_Vaulted10
&OBST XB=15.30,20.30,7.60,8.00,3.50,3.60, SURF_IDS='Attic Gypsum','Gypsum','Ceiling Gypsum'/ Ceiling_LivRm_Vaulted11
&OBST XB=15.20,20.30,7.60,7.70,2.50,3.60, SURF_IDS='Attic Gypsum','Gypsum','Ceiling Gypsum'/ Ceiling_LivRm_Vaulted12
&OBST XB=15.20,15.30,7.70,11.20,2.50,2.80, SURF_IDS='Attic Gypsum','Gypsum','Ceiling Gypsum'/ Ceiling_LivRm_VaultedB1
&OBST XB=15.20,15.30,7.70,10.80,2.80,2.90, SURF_IDS='Attic Gypsum','Gypsum','Ceiling Gypsum'/ Ceiling_LivRm_VaultedB2
&OBST XB=15.20,15.30,7.70,10.400,2.90,3.00, SURF_IDS='Attic Gypsum','Gypsum','Ceiling Gypsum'/ Ceiling_LivRm_VaultedB3
&OBST XB=15.20,15.30,7.70,10.00,3.00,3.10, SURF_IDS='Attic Gypsum','Gypsum','Ceiling Gypsum'/ Ceiling_LivRm_VaultedB4
&OBST XB=15.20,15.30,7.70, 9.60,3.10,3.20, SURF_IDS='Attic Gypsum','Gypsum','Ceiling Gypsum'/ Ceiling_LivRm_VaultedB5
&OBST XB=15.20,15.30,7.70,9.20,3.20,3.30, SURF_IDS='Attic Gypsum','Gypsum','Ceiling Gypsum'/ Ceiling_LivRm_VaultedB6
&OBST XB=15.20,15.30,7.70,8.80,3.30,3.40, SURF_IDS='Attic Gypsum','Gypsum','Ceiling Gypsum'/ Ceiling_LivRm_VaultedB7
&OBST XB=15.20,15.30,7.70,8.40,3.40,3.50, SURF_IDS='Attic Gypsum','Gypsum','Ceiling Gypsum'/ Ceiling_LivRm_VaultedB8