&HEAD CHID='sss_0254' TITLE='Sofa Super Store Reconstruction'/
&TIME TWFIN=2400./
&MISC SURF_DEFAULT='GB',BAROCLINIC=.FALSE./
&DUMP NFRAMES=2400,DT_RESTART=120./
&REAC ID = 'POLYURETHANE'
 FYI= 'C_6.3 H_7.1 N O_2.1, NFPA Handbook, Babrauskas'
 SOOT_YIELD = 0.10
 N = 1.0
 C = 6.3
 H = 7.1
 O = 2.1 /
*******************************************
MATERIALS AND SURF_ID'S
&MATL ID = 'GYPSUM PLASTER'
 FYI = 'Quintiere, Fire Behavior'
 CONDUCTIVITY = 0.48
 SPECIFIC_HEAT = 0.84
 DENSITY = 1440. /
&SURF ID = 'GB'
 COLOR = 'CORAL'
 MATL_ID= 'GYPSUM PLASTER'
 THICKNESS = 0.012 /
&SURF ID='WINDOW'
 MATL_ID = 'GLASS'
 FYI= 'Quintiere, Fire Behavior'
 COLOR = 'WHITE'
 THICKNESS = 0.005
 BACKING='EXPOSED' /
&MATL ID='GLASS'
 CONDUCTIVITY = 0.76
 SPECIFIC_HEAT = 0.84
 DENSITY = 2700./
&SURF ID = 'SLAB'
 MATL_ID = 'CONCRETE'
 FYI = 'Quintiere, Fire Behavior'
 COLOR = 'SLATE GRAY'
 BACKING = 'INSULATED'
 THICKNESS = 0.2 /
&MATL ID= 'CONCRETE'
 CONDUCTIVITY = 1.0
 SPECIFIC_HEAT = 0.88
 DENSITY = 2100./
&SURF ID = 'BLOCK WALL'
 MATL_ID = 'CONCRETE BLOCK'
 FYI = 'Quintiere, Fire Behavior'
 COLOR = 'GRAY'
 THICKNESS = 0.2 /
&MATL ID= 'CONCRETE BLOCK'
 CONDUCTIVITY = 0.7
 SPECIFIC_HEAT = 0.84
 DENSITY = 1800./
&SURF ID='STEEL DOOR'
 MATL_ID='STEEL'
 COLOR='BLACK'
 THICKNESS=0.05/
&MATL ID='STEEL'
 CONDUCTIVITY = 45.8
 SPECIFIC_HEAT = 0.46
 DENSITY = 7850./
&SURF ID = 'SHEET_METAL'
 MATL_ID = 'STEEL'
 COLOR = 'THISTLE'
 THICKNESS = 0.0013 /
&SURF ID = 'WOOD FLOOR'
 MATL_ID = 'WOOD'
 COLOR = 'BROWN'
 THICKNESS = 0.04/
&SURF ID = 'WOOD FURN'
 MATL_ID = 'WOOD'
 COLOR = 'BROWN'
 THICKNESS = 0.013/
&MATL ID= 'WOOD'
 CONDUCTIVITY = 0.14
 SPECIFIC_HEAT = 2.85
 DENSITY = 640./
&MATL ID = 'CARPET MATERIAL'
 CONDUCTIVITY = 0.16
 SPECIFIC_HEAT = 9.0
 DENSITY = 750.
 N_REACTIONS = 1
 NU_FUEL = 1.
 HEAT_OF_COMBUSTION = 22300.
 HEAT_OF_REACTION = 2000.
 REFERENCE_TEMPERATURE = 350./
&SURF ID = 'CARPET'
 MATL_ID = 'CARPET MATERIAL'
 COLOR = 'SANDY BROWN'
 THICKNESS = 0.006
 BACKING = 'INSULATED' /
&SURF ID = 'ROOF_MAIN'
 MATL_ID = 'STEEL'
 COLOR = 'TAN'
 THICKNESS = 0.1
 BACKING = 'INSULATED'/
&SURF ID = 'ROOF_LEFT'
 MATL_ID = 'STEEL'
 COLOR = 'TAN'
 THICKNESS = 0.1
 BACKING = 'INSULATED'/
&SURF ID = 'ROOF_RIGHT'
 MATL_ID = 'STEEL'
 COLOR = 'TAN'
 THICKNESS = 0.1
 BACKING = 'INSULATED'/
&SURF ID = 'ROOF_WORKSHOP'
 MATL_ID = 'STEEL'
 COLOR = 'TAN'
 THICKNESS = 0.1
 BACKING = 'INSULATED'/
&SURF ID = 'ROOF_WAREHOUSE'
 MATL_ID = 'STEEL'
 COLOR = 'TAN'
 THICKNESS = 0.1
 BACKING = 'INSULATED'/
&SURF ID = 'ROOF_LD'
 MATL_ID = 'STEEL'
 COLOR = 'TAN'
 THICKNESS = 0.1
 BACKING = 'INSULATED'/
&SURF ID = 'ROOF_BREEZEWAY'
 MATL_ID = 'STEEL'
 COLOR = 'TAN'
 THICKNESS = 0.1
 BACKING = 'INSULATED'/
&SURF ID = 'ROOF_REAR'
 MATL_ID = 'STEEL'
 COLOR = 'TAN'
 THICKNESS = 0.1
 BACKING = 'INSULATED'/
&SURF ID = 'ROOF_REAR_FLAT'
 MATL_ID = 'STEEL'
 COLOR = 'TAN'
 THICKNESS = 0.1
 BACKING = 'INSULATED'/
&MATL ID = 'FABRIC'
 SPECIFIC_HEAT = 1.0
 CONDUCTIVITY = 0.1
 DENSITY = 100.0
 N_REACTIONS = 1
 NU_FUEL = 1.
 REFERENCE_TEMPERATURE = 350.
 HEAT_OF_REACTION = 1500.
 HEAT_OF_COMBUSTION = 15000. /
&MATL ID = 'FOAM'
 SPECIFIC_HEAT = 1.4
 CONDUCTIVITY = 0.034
 DENSITY = 20.0
 N_REACTIONS = 1
 NU_FUEL = 1.
 REFERENCE_TEMPERATURE = 350.
 HEAT_OF_REACTION = 1350.
 HEAT_OF_COMBUSTION = 25000. /
&SURF ID = 'UPHOLSTERY'
 COLOR = 'SIENNA'
 BURN_AWAY = .TRUE.
 MATL_ID(1:2,1) = 'FABRIC','FOAM'
 THICKNESS(1:2) = 0.002,0.375 /
&SURF ID='A-CEIL-MAIN-0'
 COLOR = 'BLACK'
 THICKNESS = 0.016
 MATL_ID='ACOUSTIC_TILE'/
&MATL ID= 'ACOUSTIC_TILE'
 SPECIFIC_HEAT = 1.34
 CONDUCTIVITY = 0.058
 DENSITY = 290/
******************************************
Meshes
&MESH IJK=100,80,30, XB= 28.8, 66.3, 23.3, 53.3, -0.24, 11.01 / Mesh 1 240000
&MESH IJK=100,90,16, XB= 28.8, 66.3, -10.45, 23.3, -0.24, 5.76 / Mesh 2
&MESH IJK=54,128,16, XB= 8.55, 28.8, -10.45, 37.55, -0.24, 5.76 / Mesh 3 110592
&MESH IJK=48,108,16, XB= -9.45, 8.55, -10.45, 30.05, -0.24, 5.76 / Mesh 4 82944
&MESH IJK=50,40,20, XB= 28.8, 66.3, 23.3, 53.3, 11.01, 26.01 / Mesh 5 40000
&MESH IJK=80,90,30, XB= 36.3, 66.3, 53.3, 87.05, -0.24, 11.01 / Mesh 6 216000
&MESH IJK=40,45,20, XB= 36.3, 66.3, 53.3, 87.05, 11.01, 26.01 / Mesh 7 36000
&MESH IJK=50,45,27 XB= 28.8, 66.3, -10.45, 23.3, 5.76, 26.01 / Mesh 8 60750
&MESH IJK=27,64,27 XB= 8.55, 28.8, -10.45, 37.55, 5.76, 26.01 / Mesh 9 46656
&MESH IJK=24,120,30 XB= 66.3, 75.3, 42.05, 87.05, -0.24, 11.01 / Mesh 10 86400
&MESH IJK=12,60,20 XB= 66.3, 75.3, 42.05, 87.05, 11.01, 26.01 / Mesh 11 14400
&MESH IJK=77,10,32 XB= 8.55, 66.3, -17.95, -10.45, 2.01, 26.01 / Mesh 12 24640
******************************************
Domain Boundaries
&VENT MB='XMIN' SURF_ID='OPEN'/
&VENT MB='XMAX' SURF_ID='OPEN'/
&VENT MB='YMIN' SURF_ID='OPEN'/
&VENT MB='YMAX' SURF_ID='OPEN'/
&VENT MB='ZMIN' SURF_ID='OPEN'/
&VENT MB='ZMAX' SURF_ID='OPEN'/
&VENT XB=-9.45,75.3,-10.45,87.05,-0.24,-0.24, SURF_ID='INERT'/
******************************************
Fires
&VENT XB= 60.66, 61.05, 41.5, 43.5, 0.15, 0.15, SURF_ID='FIRE_RAMP'/ Couch Fire
&SURF ID='FIRE_RAMP' HRRPUA=1000.0 RAMP_Q='RAMP_FIRE'/
&RAMP ID='RAMP_FIRE' T=0.0 F=0.0 /
&RAMP ID='RAMP_FIRE' T=1.0 F=1.0/
&RAMP ID='RAMP_FIRE' T=601.0 F=1.0 /
&RAMP_ID='RAMP_FIRE' T=602.0 F=0.0 /
&SURF ID='BURNER', HRRPUA=1000. /
&VENT XB= 56.55, 56.925, 47.3, 47.675, 0.51, 0.51, OUTLINE=.TRUE. SURF_ID= 'WH_FIRE_RAMP' /
Warehouse Fire
&SURF ID='WH_FIRE_RAMP' HRRPUA=1000. RAMP_Q='WH_RAMP'/
&RAMP ID='WH_RAMP' T=0.0 F=0.0 /
&RAMP ID='WH_RAMP' T=410.0 F=0.0 /
&RAMP ID='WH_RAMP' T=440.0 F=0.02 /
&RAMP ID='WH_RAMP' T=470.0 F=0.07 /
&RAMP ID='WH_RAMP' T=500.0 F=0.16 /
&RAMP ID='WH_RAMP' T=530.0 F=0.29 /
&RAMP ID='WH_RAMP' T=560.0 F=0.45 /
&RAMP ID='WH_RAMP' T=610.0 F=0.79 /
&RAMP ID='WH_RAMP' T=650.0 F=1.14 /
&RAMP ID='WH_RAMP' T=1010.0 F=1.14 /
&RAMP ID='WH_RAMP' T=1130.0 F=0.0 /
&VENT XB= 41.55, 44.92, 35.67, 36.41, 0.14, 0.14, OUTLINE=.TRUE. SURF_ID= 'MAIN_SHOWROOM_FIRE' /
&SURF ID='MAIN_SHOWROOM_FIRE' HRRPUA=1500. RAMP_Q='MAIN_SHOWROOM_RAMP'/
&RAMP ID='MAIN_SHOWROOM_RAMP' T=0.0 F=0.0 /
&RAMP ID='MAIN_SHOWROOM_RAMP' T=525.0 F=0.0 /
&RAMP ID='MAIN_SHOWROOM_RAMP' T=555.0 F=0.042 /
&RAMP ID='MAIN_SHOWROOM_RAMP' T=585.0 F=0.169 /
&RAMP ID='MAIN_SHOWROOM_RAMP' T=615.0 F=0.379 /
&RAMP ID='MAIN_SHOWROOM_RAMP' T=645.0 F=0.675 /
&RAMP ID='MAIN_SHOWROOM_RAMP' T=675.0 F=1.055 /
&RAMP ID='MAIN_SHOWROOM_RAMP' T=1275.0 F=1.055 /
&RAMP ID='MAIN_SHOWROOM_RAMP' T=1335.0 F=0.0 /
&RAMP ID='MAIN_SHOWROOM_RAMP' T=1560.0 F=0.0 /
&VENT XB= 41.55, 43.05, 33.045, 35.67, 0.15, 0.15, OUTLINE=.TRUE. SURF_ID='MAIN_SHOWROOM_FIRE2'/
&SURF ID='MAIN_SHOWROOM_FIRE2' HRRPUA=1500. RAMP_Q='MAIN_SHOWROOM_RAMP2'/
&RAMP ID='MAIN_SHOWROOM_RAMP2' T=0.0 F=0.0 /
&RAMP ID='MAIN_SHOWROOM_RAMP2' T=660.0 F=0.0 /
&RAMP ID='MAIN_SHOWROOM_RAMP2' T=690.0 F=0.027 /
&RAMP ID='MAIN_SHOWROOM_RAMP2' T=720.0 F=0.108 /
&RAMP ID='MAIN_SHOWROOM_RAMP2' T=750.0 F=0.244 /
&RAMP ID='MAIN_SHOWROOM_RAMP2' T=780.0 F=0.433 /
&RAMP ID='MAIN_SHOWROOM_RAMP2' T=810.0 F=0.677 /
&RAMP ID='MAIN_SHOWROOM_RAMP2' T=900.0 F=1.029 /
&RAMP ID='MAIN_SHOWROOM_RAMP2' T=1500.0 F=1.029 /
&RAMP ID='MAIN_SHOWROOM_RAMP2' T=1560.0 F=0.0 /
******************************************
Obstruction Surface Types
&SURF ID='A-CEIL-MAIN-0'
 COLOR='BLACK' /
&SURF ID='A-WALL-MAIN-WS'
 COLOR ='SILVER' /
&SURF ID='A-WALL-MAIN-SR'
 COLOR= 'RED' /
&SURF ID='A-WALL-MAIN-FS'
 COLOR= 'CYAN' /
&SURF ID='A-WALL-MAIN-CB'
 COLOR= 'GREEN'/
******************************************
Windows
&OBST XB=61.01,66.1,-6.4,-6.55,0.54,2.26 SURF_ID='WINDOW', DEVC_ID='RIGHT ADDITION WINDOWS 1'/ RIGHT ADDITION WINDOW
&OBST XB=54.5,59.93,-6.4,-6.55,0.54,2.26 SURF_ID='WINDOW' , DEVC_ID='RIGHT ADDITION WINDOWS 2'/ RIGHT ADDITION WINDOW
&OBST XB=48.45,53.4,-6.4,-6.55,0.54,2.26 SURF_ID='WINDOW', DEVC_ID='RIGHT ADDITION WINDOWS 3'/ RIGHT ADDITION WINDOW
&DEVC ID='RIGHT ADDITION WINDOWS 1' , XYZ=63.5, -6.3, 2.0, QUANTITY='TIME' SETPOINT=1900.0, INITIAL_STATE=.TRUE./
&DEVC ID='RIGHT ADDITION WINDOWS 2' , XYZ=57.1, -6.3, 2.0, QUANTITY='TIME' SETPOINT=1783.0, INITIAL_STATE=.TRUE./
&DEVC ID='RIGHT ADDITION WINDOWS 3' , XYZ=51.0, -6.3, 2.0, QUANTITY='TIME' SETPOINT=1637.0, INITIAL_STATE=.TRUE./
&OBST XB=33.60,36.30,-6.4,-6.55,0.54,2.26 SURF_ID='WINDOW' , DEVC_ID='MAIN STRUCTURE WINDOW R2'/ MAIN STRUCTURE WINDOW
&OBST XB=36.30,38.55,-6.4,-6.55,0.54,2.26 SURF_ID='WINDOW' , DEVC_ID='MAIN STRUCTURE WINDOW R3'/ MAIN STRUCTURE WINDOW
&OBST XB=38.55,40.80,-6.4,-6.55,0.54,2.26 SURF_ID='WINDOW' , DEVC_ID='MAIN STRUCTURE WINDOW R4'/ MAIN STRUCTURE WINDOW
&OBST XB=40.80,43.35,-6.4,-6.55,0.54,2.26 SURF_ID='WINDOW' , DEVC_ID='MAIN STRUCTURE WINDOW R5'/ MAIN STRUCTURE WINDOW
&OBST XB=31.53,32.54,-6.4,-6.55,0.54,2.26 SURF_ID='WINDOW' , DEVC_ID='MAIN STRUCTURE WINDOW R1'/ MAIN STRUCTURE WINDOW
&OBST XB=25.00,25.77,-6.4,-6.55,0.54,2.26 SURF_ID='WINDOW', DEVC_ID='MAIN STRUCTURE WINDOW L1'/ MAIN STRUCTURE WINDOW
&OBST XB=13.95,16.42,-6.4,-6.55,0.54,2.26 SURF_ID='WINDOW', DEVC_ID='MAIN STRUCTURE WINDOW L5'/ MAIN STRUCTURE WINDOW
&OBST XB=16.42,19.05,-6.4,-6.55,0.54,2.26 SURF_ID='WINDOW', DEVC_ID='MAIN STRUCTURE WINDOW L4'/ MAIN STRUCTURE WINDOW
&OBST XB=19.05,21.67,-6.4,-6.55,0.54,2.26 SURF_ID='WINDOW', DEVC_ID='MAIN STRUCTURE WINDOW L3'/ MAIN STRUCTURE WINDOW
&OBST XB=21.67,23.85,-6.4,-6.55,0.54,2.26 SURF_ID='WINDOW', DEVC_ID='MAIN STRUCTURE WINDOW L2'/ MAIN STRUCTURE WINDOW
&DEVC ID='MAIN STRUCTURE WINDOW L1', XYZ=25.4,-6.0,2.0, QUANTITY='TIME', SETPOINT=1497.0, INITIAL_STATE=.TRUE./
&DEVC ID='MAIN STRUCTURE WINDOW L2', XYZ=23.2,-6.0,2.0, QUANTITY='TIME', SETPOINT=1457.0, INITIAL_STATE=.TRUE./
&DEVC ID='MAIN STRUCTURE WINDOW L3', XYZ=20.0,-6.0,2.0, QUANTITY='TIME', SETPOINT=1461.0, INITIAL_STATE=.TRUE./
&DEVC ID='MAIN STRUCTURE WINDOW L4', XYZ=17.5,-6.0,2.0, QUANTITY='TIME', SETPOINT=1467.0, INITIAL_STATE=.TRUE./
&DEVC ID='MAIN STRUCTURE WINDOW L5', XYZ=14.5,-6.0,2.0, QUANTITY='TIME', SETPOINT=1497.0, INITIAL_STATE=.TRUE./
&DEVC ID='MAIN STRUCTURE WINDOW R1', XYZ=32.0,-6.0,2.0, QUANTITY='TIME', SETPOINT=1530.0, INITIAL_STATE=.TRUE./
&DEVC ID='MAIN STRUCTURE WINDOW R2', XYZ=35.0,-6.0,2.0, QUANTITY='TIME', SETPOINT=1465.0, INITIAL_STATE=.TRUE./
&DEVC ID='MAIN STRUCTURE WINDOW R3', XYZ=37.1,-6.0,2.0, QUANTITY='TIME', SETPOINT=1485.0, INITIAL_STATE=.TRUE./
&DEVC ID='MAIN STRUCTURE WINDOW R4', XYZ=39.6,-6.0,2.0, QUANTITY='TIME', SETPOINT=1472.0, INITIAL_STATE=.TRUE./
&DEVC ID='MAIN STRUCTURE WINDOW R5', XYZ=42.0,-6.0,2.0, QUANTITY='TIME', SETPOINT=1497.0, INITIAL_STATE=.TRUE./
&OBST XB=-3.16,-8.2,-6.4,-6.55,0.58,2.26 SURF_ID='WINDOW' / LEFT ADDITION WINDOW
&OBST XB=-2.17,2.97,-6.4,-6.55,0.58,2.26 SURF_ID='WINDOW' / LEFT ADDITION WINDOW
&OBST XB=4.16,9.3,-6.4,-6.55,0.58,2.26 SURF_ID='WINDOW' / LEFT ADDITION WINDOW
******************************************
Doors
&OBST XB=67.5,71.1,46.25,46.9,0.06,3.51 SURF_ID='SHEET_METAL',COLOR='GRAY' / WAREHOUSE ROLL UP
&OBST XB=71.6,72.9,46.25,46.9,0.06,2.3 SURF_ID='STEEL DOOR' DEVC_ID='WAREHOUSE MAN DOOR'/ WAREHOUSE MAN DOOR
&DEVC ID='WAREHOUSE MAN DOOR', XYZ=72.1,46.0,2.0, SETPOINT=1500, QUANTITY='TIME',INITIAL_STATE=.TRUE./
&HOLE XB=69.3,71.2,45.8,47.3,0.88,2.01 DEVC_ID='WH_ROLL' /
&DEVC ID='WH_ROLL', XYZ=70.2,45.8,1.4, QUANTITY='TIME', SETPOINT=1200, INITIAL_STATE=.FALSE./
&OBST XB=39.3,40.58,85.98,86.2,0.06,2.39 SURF_ID='STEEL DOOR' / WAREHOUSE REAR DOOR
&HOLE XB=46.86,43.5,45.9,46.8,0.06,3.5 / BREEZEWAY ENTRANCE
&HOLE XB=41.77,42.97,45.9,46.8,0.06,2.05 / WORKSHOP ENTRANCE
&HOLE XB=37.582, 38.882, 48.7753, 50.352, 0.06, 3.07 / L-SHAPED ADDITION ENTRANCE
&HOLE XB=34.0, 34.5, 42.8, 44.3, 0.06, 2.05 / PASS THROUGH TO 10G ROOM
&OBST XB=29.25,31.05,-6.4,-6.55,0.07,2.26, SURF_ID='WINDOW', DEVC_ID='MAIN STRUCTURE WINDOW R1'/ MAIN DOOR
&OBST XB=-8.7,-8.2,6.87,8.66,0.07,2.18, SURF_ID='STEEL DOOR' / LEFT ADDITION DOOR
&OBST XB=-8.7,-8.2,27.01,28.9,0.07,2.18, SURF_ID='STEEL DOOR' / LEFT ADDITION DOOR
&OBST XB=47.85,48.4,19.044,21.482,2.48,4.29 SURF_ID6='GB','GB','GB','GB','GB','ROOF_MAIN' / SOFFET FOR RIGHT SIDE ROLL UP
&OBST XB=47.85,48.4,6.63,9.752,2.48,4.29 SURF_ID6='GB','GB','GB','GB','GB','ROOF_MAIN' / SOFFET FOR RIGHT SIDE ROLL UP
&OBST XB=47.85,48.4,-3.95,-1.52,2.48,4.29 SURF_ID6='GB','GB','GB','GB','GB','ROOF_MAIN' / SOFFET FOR RIGHT SIDE ROLL UP
&OBST XB=47.85,48.4,33.973,36.410,2.48,4.29 SURF_ID6='GB','BLOCK WALL','BLOCK WALL','BLOCK WALL','BLOCK WALL','BLOCK WALL' / SOFFET FOR RIGHT SIDE ROLL UP
&OBST XB=47.85,48.4,19.044,21.482,0.06,2.48 SURF_ID='SHEET_METAL', DEVC_ID='RIGHT SIDE ROLL UP 1' / RIGHT SIDE ROLL UP
&OBST XB=47.85,48.4,7.03,9.752,0.06,2.48 SURF_ID='SHEET_METAL', DEVC_ID='RIGHT SIDE ROLL UP 2'/ RIGHT SIDE ROLL UP
&OBST XB=47.85,48.4,-3.95,-1.52,0.06,2.48 SURF_ID='SHEET_METAL', DEVC_ID='RIGHT SIDE ROLL UP 3'/ RIGHT SIDE ROLL UP
&DEVC ID='RIGHT SIDE ROLL UP 1', XYZ=48.2,20.24,2.48, QUANTITY='TEMPERATURE'/,SETPOINT=73.89, INITIAL_STATE=.FALSE./
&DEVC ID='RIGHT SIDE ROLL UP 2', XYZ=48.2,8.5,2.48, QUANTITY='TEMPERATURE'/,SETPOINT=73.89, INITIAL_STATE=.FALSE./
&DEVC ID='RIGHT SIDE ROLL UP 3', XYZ=48.2,-2.76,2.48, QUANTITY='TEMPERATURE'/,SETPOINT=73.89, INITIAL_STATE=.FALSE./
&OBST XB=47.85,48.4,30.622,31.688,0.06,2.03 SURF_ID='STEEL DOOR' / RIGHT SIDE DOOR
&OBST XB=47.85,48.4,24.68,25.747,0.06,2.03 SURF_ID='STEEL DOOR' / RIGHT SIDE DOOR
&OBST XB=47.85,48.4,22.396,23.310,0.06,2.03 SURF_ID='STEEL DOOR' / RIGHT SIDE DOOR
&OBST XB=9.3,9.6,-3.806,-1.368,0.06,2.48 SURF_ID='SHEET_METAL', DEVC_ID='LEFT SIDE ROLL UP 3' / LEFT SIDE ROLL UP
&OBST XB=9.3,9.6,7.162,9.600,0.06,2.48 SURF_ID='SHEET_METAL', DEVC_ID='LEFT SIDE ROLL UP 2' / LEFT SIDE ROLL UP
&OBST XB=9.3,9.6,18.892,21.329,1.2,2.48 SURF_ID='SHEET_METAL', DEVC_ID='LEFT SIDE ROLL UP 1' / LEFT SIDE ROLL UP
&DEVC ID='LEFT SIDE ROLL UP 1', XYZ=9.1,20.24,2.48, SETPOINT=73.89, QUANTITY='TEMPERATURE',INITIAL_STATE=.FALSE./
&DEVC ID='LEFT SIDE ROLL UP 2', XYZ=9.1,8.4,2.48, SETPOINT=73.89, QUANTITY='TEMPERATURE',INITIAL_STATE=.FALSE./
&DEVC ID='LEFT SIDE ROLL UP 3', XYZ=9.1,-2.76,2.48, SETPOINT=73.89, QUANTITY='TEMPERATURE',INITIAL_STATE=.FALSE./
&OBST XB=9.3,9.6,-3.806,-1.368,2.48,4.29 SURF_ID6='GB','GB','GB','GB','GB','ROOF_MAIN' / SOFFET FOR LEFT SIDE ROLL UP
&OBST XB=9.3,9.6,7.162,9.600,2.48,4.29 SURF_ID6='GB','GB','GB','GB','GB','ROOF_MAIN' / SOFFET FOR LEFT SIDE ROLL UP
&OBST XB=9.3,9.6,18.892,21.329,2.48,4.29 SURF_ID6='GB','GB','GB','GB','GB','ROOF_MAIN' / SOFFET FOR LEFT SIDE ROLL UP
&OBST XB=43.95,46.35,38.85,39.0,0.06,2.48 SURF_ID='SHEET_METAL', DEVC_ID='BREEZEWAY ROLL UP' / BREEZEWAY ROLL UP DOOR
&DEVC ID='BREEZEWAY ROLL UP', XYZ=45.15,38.65,2.48, SETPOINT=73.89, QUANTITY='TEMPERATURE',INITIAL_STATE=.FALSE./
&OBST XB=43.95,46.35,38.85,39.0,2.48,2.48 SURF_ID6='BLOCK WALL','BLOCK WALL','GB','BLOCK WALL','BLOCK WALL','BLOCK WALL' / SOFFET FOR WAREHOUSE ROLL UP DOOR
&OBST XB=34.35,46.8,38.7,39.05,2.41,4.3 SURF_ID6='BLOCK WALL','BLOCK WALL','GB','BLOCK WALL','BLOCK WALL','BLOCK WALL' / SOFFET 2 FOR WAREHOUSE ROLL UP DOOR
&OBST XB=48.45,50.27,29.2,29.8,0.06,2.18 SURF_ID='STEEL DOOR', DEVC_ID='TIMER1' / DOUBLE DOOR
&DEVC XYZ=49,29,1, ID='TIMER1', SETPOINT=144.0,QUANTITY='TIME',INITIAL_STATE=.TRUE./
&OBST XB=60.6,61.0,34.33,37.13,0.07,2.73 SURF_ID='SHEET_METAL', COLOR='GRAY',DEVC_ID='TIMER_LD2' / LOADING DOCK BIG DOOR
&DEVC XYZ=61.8,35.73,2.4, ID='TIMER_LD2', SETPOINT=1717.0,QUANTITY='TIME',INITIAL_STATE=.TRUE./
&OBST XB=61.05,61.4,44.34,46.25,0.07,2.42 SURF_ID='SHEET_METAL' , COLOR='GRAY', DEVC_ID='TIMER_LD1' / LD REAR DOOR
&DEVC XYZ=61.8,45.3,2.4, ID='TIMER_LD1', SETPOINT=219.0,QUANTITY='TIME',INITIAL_STATE=.TRUE./
&OBST XB=43.7,47.8,23.9,24.1,0.15,2.89 / REAR HALL WALL
&HOLE XB= 42.7 43.8 35.66 36.43 0.15 2.11 DEVC_ID='TIMER HALL' / Blank Hall Doorway
&DEVC XYZ= 43.7 34.5 2.11 ID='TIMER HALL', SETPOINT=360.0,QUANTITY='TIME',INITIAL_STATE=.FALSE./
&HOLE XB= 42.7 43.8 36.43 37.18 0.15 2.11 DEVC_ID='TIMER HALL2' / Blank Hall Doorway
&DEVC XYZ= 43.7 37.0 2.11 ID='TIMER HALL2', SETPOINT=600.0,QUANTITY='TIME',INITIAL_STATE=.FALSE./
******************************************
WAREHOUSE SKYLIGHTS
&HOLE XB= 63.75 60 48.33 49.24 8.1 9.5 DEVC_ID='SKYLIGHT 1'/ WAREHOUSE SKYLIGHT
&HOLE XB= 63.75 60 51.45 52.36 8.1 9.5 DEVC_ID='SKYLIGHT 1'/ WAREHOUSE SKYLIGHT
&HOLE XB= 63.75 60 56 56.91 8.1 9.5 DEVC_ID='SKYLIGHT 1'/ WAREHOUSE SKYLIGHT
&DEVC ID='SKYLIGHT 1', XYZ=62.0, 52.6, 8.0, QUANTITY='TEMPERATURE', SETPOINT=150.0, INITIAL_STATE=.FALSE./
&HOLE XB= 63.75 60 59.12 60.03 8.1 9.5 DEVC_ID='SKYLIGHT 2'/ WAREHOUSE SKYLIGHT
&HOLE XB= 63.75 60 63.67 64.58 8.1 9.5 DEVC_ID='SKYLIGHT 2'/ WAREHOUSE SKYLIGHT
&HOLE XB= 63.75 60 66.79 67.7 8.1 9.5 DEVC_ID='SKYLIGHT 2'/ WAREHOUSE SKYLIGHT
&DEVC ID='SKYLIGHT 2', XYZ=62.0, 63.4, 8.0, QUANTITY='TEMPERATURE', SETPOINT=150.0, INITIAL_STATE=.FALSE./
&HOLE XB= 63.75 60 71.34 72.25 8.1 9.5 DEVC_ID='SKYLIGHT 3'/ WAREHOUSE SKYLIGHT
&HOLE XB= 63.75 60 74.46 75.37 8.1 9.5 DEVC_ID='SKYLIGHT 3'/ WAREHOUSE SKYLIGHT
&HOLE XB= 63.75 60 79.01 79.92 8.1 9.5 DEVC_ID='SKYLIGHT 3'/ WAREHOUSE SKYLIGHT
&HOLE XB= 63.75 60 82.13 83.04 8.1 9.5 DEVC_ID='SKYLIGHT 3'/ WAREHOUSE SKYLIGHT
&DEVC ID='SKYLIGHT 3', XYZ=62.0, 77.1, 8.0, QUANTITY='TEMPERATURE', SETPOINT=150.0, INITIAL_STATE=.FALSE./
&HOLE XB= 71.25 67.5 48.33 49.24 8.1 9.5 DEVC_ID='SKYLIGHT 4'/ WAREHOUSE SKYLIGHT
&HOLE XB= 71.25 67.5 51.45 52.36 8.1 9.5 DEVC_ID='SKYLIGHT 4'/ WAREHOUSE SKYLIGHT
&HOLE XB= 71.25 67.5 56 56.91 8.1 9.5 DEVC_ID='SKYLIGHT 4'/ WAREHOUSE SKYLIGHT
&DEVC ID='SKYLIGHT 4', XYZ=69.4, 52.6, 8.0, QUANTITY='TEMPERATURE', SETPOINT=150.0, INITIAL_STATE=.FALSE./
&HOLE XB= 71.25 67.5 59.12 60.03 8.1 9.5 DEVC_ID='SKYLIGHT 5'/ WAREHOUSE SKYLIGHT
&HOLE XB= 71.25 67.5 63.67 64.58 8.1 9.5 DEVC_ID='SKYLIGHT 5'/ WAREHOUSE SKYLIGHT
&HOLE XB= 71.25 67.5 66.79 67.7 8.1 9.5 DEVC_ID='SKYLIGHT 5'/ WAREHOUSE SKYLIGHT
&DEVC ID='SKYLIGHT 5', XYZ=69.4, 63.4, 8.0, QUANTITY='TEMPERATURE', SETPOINT=150.0, INITIAL_STATE=.FALSE./
&HOLE XB= 71.25 67.5 71.34 72.25 8.1 9.5 DEVC_ID='SKYLIGHT 6'/ WAREHOUSE SKYLIGHT
&HOLE XB= 71.25 67.5 74.46 75.37 8.1 9.5 DEVC_ID='SKYLIGHT 6'/ WAREHOUSE SKYLIGHT
&HOLE XB= 71.25 67.5 79.01 79.92 8.1 9.5 DEVC_ID='SKYLIGHT 6'/ WAREHOUSE SKYLIGHT
&HOLE XB= 71.25 67.5 82.13 83.04 8.1 9.5 DEVC_ID='SKYLIGHT 6'/ WAREHOUSE SKYLIGHT
&DEVC ID='SKYLIGHT 6', XYZ=69.4, 77.1, 8.0, QUANTITY='TEMPERATURE', SETPOINT=150.0, INITIAL_STATE=.FALSE./
&HOLE XB= 45.08 41.33 48.33 49.24 8.1 9.5 DEVC_ID='SKYLIGHT 7'/ WAREHOUSE SKYLIGHT
&HOLE XB= 45.08 41.33 51.45 52.36 8.1 9.5 DEVC_ID='SKYLIGHT 7'/ WAREHOUSE SKYLIGHT
&HOLE XB= 45.08 41.33 56 56.91 8.1 9.5 DEVC_ID='SKYLIGHT 7'/ WAREHOUSE SKYLIGHT
&DEVC ID='SKYLIGHT 7', XYZ=43.2, 52.6, 8.0, QUANTITY='TEMPERATURE', SETPOINT=150.0, INITIAL_STATE=.FALSE./
&HOLE XB= 45.08 41.33 59.12 60.03 8.1 9.5 DEVC_ID='SKYLIGHT 8'/ WAREHOUSE SKYLIGHT
&HOLE XB= 45.08 41.33 63.67 64.58 8.1 9.5 DEVC_ID='SKYLIGHT 8'/ WAREHOUSE SKYLIGHT
&HOLE XB= 45.08 41.33 66.79 67.7 8.1 9.5 DEVC_ID='SKYLIGHT 8'/ WAREHOUSE SKYLIGHT
&DEVC ID='SKYLIGHT 8', XYZ=43.2, 63.4, 8.0, QUANTITY='TEMPERATURE', SETPOINT=150.0, INITIAL_STATE=.FALSE./
&HOLE XB= 45.08 41.33 71.34 72.25 8.1 9.5 DEVC_ID='SKYLIGHT 9'/ WAREHOUSE SKYLIGHT
&HOLE XB= 45.08 41.33 74.46 75.37 8.1 9.5 DEVC_ID='SKYLIGHT 9'/ WAREHOUSE SKYLIGHT
&HOLE XB= 45.08 41.33 79.01 79.92 8.1 9.5 DEVC_ID='SKYLIGHT 9'/ WAREHOUSE SKYLIGHT
&HOLE XB= 45.08 41.33 82.13 83.04 8.1 9.5 DEVC_ID='SKYLIGHT 9'/ WAREHOUSE SKYLIGHT
&DEVC ID='SKYLIGHT 9', XYZ=43.2, 77.1, 8.0, QUANTITY='TEMPERATURE', SETPOINT=150.0, INITIAL_STATE=.FALSE./
&HOLE XB= 48.83 52.58 48.33 49.24 8.1 9.5 DEVC_ID='SKYLIGHT 10'/ WAREHOUSE SKYLIGHT
&HOLE XB= 48.83 52.58 51.45 52.36 8.1 9.5 DEVC_ID='SKYLIGHT 10'/ WAREHOUSE SKYLIGHT
&HOLE XB= 48.83 52.58 56 56.91 8.1 9.5 DEVC_ID='SKYLIGHT 10'/ WAREHOUSE SKYLIGHT
&DEVC ID='SKYLIGHT 10', XYZ=50.6, 52.6, 8.0, QUANTITY='TEMPERATURE', SETPOINT=150.0, INITIAL_STATE=.FALSE./
&HOLE XB= 48.83 52.58 59.12 60.03 8.1 9.5 DEVC_ID='SKYLIGHT 11'/ WAREHOUSE SKYLIGHT
&HOLE XB= 48.83 52.58 63.67 64.58 8.1 9.5 DEVC_ID='SKYLIGHT 11'/ WAREHOUSE SKYLIGHT
&HOLE XB= 48.83 52.58 66.79 67.7 8.1 9.5 DEVC_ID='SKYLIGHT 11'/ WAREHOUSE SKYLIGHT
&DEVC ID='SKYLIGHT 11', XYZ=50.6, 63.4, 8.0, QUANTITY='TEMPERATURE', SETPOINT=150.0, INITIAL_STATE=.FALSE./
&HOLE XB= 48.83 52.58 71.34 72.25 8.1 9.5 DEVC_ID='SKYLIGHT 12'/ WAREHOUSE SKYLIGHT
&HOLE XB= 48.83 52.58 74.46 75.37 8.1 9.5 DEVC_ID='SKYLIGHT 12'/ WAREHOUSE SKYLIGHT
&HOLE XB= 48.83 52.58 79.01 79.92 8.1 9.5 DEVC_ID='SKYLIGHT 12'/ WAREHOUSE SKYLIGHT
&HOLE XB= 48.83 52.58 82.13 83.04 8.1 9.5 DEVC_ID='SKYLIGHT 12'/ WAREHOUSE SKYLIGHT
&DEVC ID='SKYLIGHT 12', XYZ=50.6, 77.1, 8.0, QUANTITY='TEMPERATURE', SETPOINT=150.0, INITIAL_STATE=.FALSE./
****
****
VENTS
&OBST XB= 47.17 67.43 46.92 48.05 0.88 1.25 SURF_ID='WOOD FLOOR'/
&OBST XB= 47.17 67.43 46.92 48.05 2.01 2.38 SURF_ID='WOOD FLOOR'/
&OBST XB= 47.17 67.43 46.92 48.05 3.13 3.51 SURF_ID='WOOD FLOOR'/
&OBST XB= 47.17 67.43 46.92 48.05 4.26 4.64 SURF_ID='WOOD FLOOR'/
&OBST XB= 47.17 67.43 46.92 48.05 5.39 5.77 SURF_ID='WOOD FLOOR'/
&OBST XB= 47.17 67.43 46.92 48.05 6.51 6.89 SURF_ID='WOOD FLOOR'/
&OBST XB= 37.8 38.9 51.05 83.3 0.88 1.25 SURF_ID='WOOD FLOOR'/
&OBST XB= 41.55 44.17 51.05 83.3 0.88 1.25 SURF_ID='WOOD FLOOR'/
&OBST XB= 46.05 48.67 51.05 83.3 0.88 1.25 SURF_ID='WOOD FLOOR'/
&OBST XB= 50.55 53.17 51.05 83.3 0.88 1.25 SURF_ID='WOOD FLOOR'/
&OBST XB= 55.05 57.67 51.05 83.3 0.88 1.25 SURF_ID='WOOD FLOOR'/
&OBST XB= 59.55 62.17 51.05 83.3 0.88 1.25 SURF_ID='WOOD FLOOR'/
&OBST XB= 64.05 66.67 51.05 83.3 0.88 1.25 SURF_ID='WOOD FLOOR'/
&OBST XB= 68.55 71.17 51.05 83.3 0.88 1.25 SURF_ID='WOOD FLOOR'/
&OBST XB= 73.05 74.17 51.05 83.3 0.88 1.25 SURF_ID='WOOD FLOOR'/
&OBST XB= 41.55 73.8 84.43 85.55 0.88 1.25 SURF_ID='WOOD FLOOR'/
&OBST XB= 37.8 38.9 51.05 83.3 2.01 2.38 SURF_ID='WOOD FLOOR'/
&OBST XB= 41.55 44.17 51.05 83.3 2.01 2.38 SURF_ID='WOOD FLOOR'/
&OBST XB= 46.05 48.67 51.05 83.3 2.01 2.38 SURF_ID='WOOD FLOOR'/
&OBST XB= 50.55 53.17 51.05 83.3 2.01 2.38 SURF_ID='WOOD FLOOR'/
&OBST XB= 55.05 57.67 51.05 83.3 2.01 2.38 SURF_ID='WOOD FLOOR'/
&OBST XB= 59.55 62.17 51.05 83.3 2.01 2.38 SURF_ID='WOOD FLOOR'/
&OBST XB= 64.05 66.67 51.05 83.3 2.01 2.38 SURF_ID='WOOD FLOOR'/
&OBST XB= 68.55 71.17 51.05 83.3 2.01 2.38 SURF_ID='WOOD FLOOR'/
&OBST XB= 73.05 74.17 51.05 83.3 2.01 2.38 SURF_ID='WOOD FLOOR'/
&OBST XB= 41.55 73.8 84.43 85.55 2.01 2.38 SURF_ID='WOOD FLOOR'/
&OBST XB= 37.8 38.9 51.05 83.3 3.13 3.51 SURF_ID='WOOD FLOOR'/
&OBST XB= 41.55 44.17 51.05 83.3 3.13 3.51 SURF_ID='WOOD FLOOR'/
&OBST XB= 46.05 48.67 51.05 83.3 3.13 3.51 SURF_ID='WOOD FLOOR'/
&OBST XB= 50.55 53.17 51.05 83.3 3.13 3.51 SURF_ID='WOOD FLOOR'/
&OBST XB= 55.05 57.67 51.05 83.3 3.13 3.51 SURF_ID='WOOD FLOOR'/
&OBST XB= 59.55 62.17 51.05 83.3 3.13 3.51 SURF_ID='WOOD FLOOR'/
&OBST XB= 64.05 66.67 51.05 83.3 3.13 3.51 SURF_ID='WOOD FLOOR'/
&OBST XB= 68.55 71.17 51.05 83.3 3.13 3.51 SURF_ID='WOOD FLOOR'/
&OBST XB= 73.05 74.17 51.05 83.3 3.13 3.51 SURF_ID='WOOD FLOOR'/
&OBST XB= 41.55 73.8 84.43 85.55 3.13 3.51 SURF_ID='WOOD FLOOR'/
&OBST XB= 37.8 38.9 51.05 83.3 4.26 4.64 SURF_ID='WOOD FLOOR'/
&OBST XB= 41.55 44.17 51.05 83.3 4.26 4.64 SURF_ID='WOOD FLOOR'/
&OBST XB= 46.05 48.67 51.05 83.3 4.26 4.64 SURF_ID='WOOD FLOOR'/
&OBST XB= 50.55 53.17 51.05 83.3 4.26 4.64 SURF_ID='WOOD FLOOR'/
&OBST XB= 55.05 57.67 51.05 83.3 4.26 4.64 SURF_ID='WOOD FLOOR'/
&OBST XB= 59.55 62.17 51.05 83.3 4.26 4.64 SURF_ID='WOOD FLOOR'/
&OBST XB= 64.05 66.67 51.05 83.3 4.26 4.64 SURF_ID='WOOD FLOOR'/
&OBST XB= 68.55 71.17 51.05 83.3 4.26 4.64 SURF_ID='WOOD FLOOR'/
&OBST XB= 73.05 74.17 51.05 83.3 4.26 4.64 SURF_ID='WOOD FLOOR'/
&OBST XB= 41.55 73.8 84.43 85.55 4.26 4.64 SURF_ID='WOOD FLOOR'/
&OBST XB= 37.8 38.9 51.05 83.3 5.39 5.77 SURF_ID='WOOD FLOOR'/
&OBST XB= 41.55 44.17 51.05 83.3 5.39 5.77 SURF_ID='WOOD FLOOR'/
&OBST XB= 46.05 48.67 51.05 83.3 5.39 5.77 SURF_ID='WOOD FLOOR'/
&OBST XB= 50.55 53.17 51.05 83.3 5.39 5.77 SURF_ID='WOOD FLOOR'/
&OBST XB= 55.05 57.67 51.05 83.3 5.39 5.77 SURF_ID='WOOD FLOOR'/
&OBST XB= 59.55 62.17 51.05 83.3 5.39 5.77 SURF_ID='WOOD FLOOR'/
&OBST XB= 64.05 66.67 51.05 83.3 5.39 5.77 SURF_ID='WOOD FLOOR'/
&OBST XB= 68.55 71.17 51.05 83.3 5.39 5.77 SURF_ID='WOOD FLOOR'/
&OBST XB= 73.05 74.17 51.05 83.3 5.39 5.77 SURF_ID='WOOD FLOOR'/
&OBST XB= 41.55 73.8 84.43 85.55 5.39 5.77 SURF_ID='WOOD FLOOR'/
&OBST XB= 37.8 38.9 51.05 83.3 6.51 6.89 SURF_ID='WOOD FLOOR'/
&OBST XB= 41.55 44.17 51.05 83.3 6.51 6.89 SURF_ID='WOOD FLOOR'/
&OBST XB= 46.05 48.67 51.05 83.3 6.51 6.89 SURF_ID='WOOD FLOOR'/
&OBST XB= 50.55 53.17 51.05 83.3 6.51 6.89 SURF_ID='WOOD FLOOR'/
&OBST XB= 55.05 57.67 51.05 83.3 6.51 6.89 SURF_ID='WOOD FLOOR'/
&OBST XB= 59.55 62.17 51.05 83.3 6.51 6.89 SURF_ID='WOOD FLOOR'/
&OBST XB= 64.05 66.67 51.05 83.3 6.51 6.89 SURF_ID='WOOD FLOOR'/
&OBST XB= 68.55 71.17 51.05 83.3 6.51 6.89 SURF_ID='WOOD FLOOR'/
&OBST XB= 73.05 74.17 51.05 83.3 6.51 6.89 SURF_ID='WOOD FLOOR'/
&OBST XB= 41.55 73.8 84.43 85.55 6.51 6.89 SURF_ID='WOOD FLOOR'/
********************************************
LD SKYLIGHTS
&HOLE XB= 50.84 51.21 40.25 42.75 2.1 3.7 DEVC_ID='SKYLIGHT 13'/ LD SKYLIGHT
&DEVC ID='SKYLIGHT 13', XYZ=51.0, 41.5, 2.8, QUANTITY='TEMPERATURE', SETPOINT=150.0, INITIAL_STATE=.FALSE./
&HOLE XB= 54.08 54.45 40.25 42.75 2.1 3.7 DEVC_ID='SKYLIGHT 14'/ LD SKYLIGHT
&DEVC ID='SKYLIGHT 14', XYZ=54.2, 41.5, 2.8, QUANTITY='TEMPERATURE', SETPOINT=150.0, INITIAL_STATE=.FALSE./
&HOLE XB= 57.32 57.69 40.25 42.75 2.1 3.7 DEVC_ID='SKYLIGHT 15'/ LD SKYLIGHT
&DEVC ID='SKYLIGHT 15', XYZ=57.5, 41.5, 2.8, QUANTITY='TEMPERATURE', SETPOINT=150.0, INITIAL_STATE=.FALSE./
******************************************
ROOF
&HOLE XB= 47.17 47.91 24.04 33.0 3.88 5.09 DEVC_ID='ROOF_HOLE'/ rear corner roof
&DEVC ID='ROOF_HOLE', XYZ=45.0,35.0,3.5, QUANTITY='TIME', SETPOINT=720.0, INITIAL_STATE=.FALSE. /
&HOLE XB= 41.55 43.4 29.3 34.2 2.4 3.51 DEVC_ID='CEILING TILES'/ Ceiling tiles
&DEVC ID='CEILING TILES', XYZ=41.0,35.0,3.5, QUANTITY='TIME', SETPOINT=1000.0, INITIAL_STATE=.FALSE. /
&HOLE XB= 47.17 47.91 33.0 38.3 3.88 5.09 DEVC_ID='BIG_HOLE'/ Big hole in PW rear corner
&DEVC ID='BIG_HOLE', XYZ=44.0,35.0,3.5, QUANTITY='TIME', SETPOINT=540.0, INITIAL_STATE=.FALSE. /
&HOLE XB= 46.05 47.17 24.04 38.8 3.88 5.09 DEVC_ID='BIG_HOLE2'/ Big hole in PW rear corner
&DEVC ID='BIG_HOLE2', XYZ=44.0,36.0,3.5, QUANTITY='TIME', SETPOINT=900.0, INITIAL_STATE=.FALSE. /
&HOLE XB= 17.55 18.3 18.8 19.92 2.4 3.51 DEVC_ID='CEILING_HOLE_T1'/
&DEVC ID='CEILING_HOLE_T1', XYZ=17.925,19.36,3.5, QUANTITY='TEMPERATURE', SETPOINT=50.0, INITIAL_STATE=.FALSE. /
&HOLE XB= 28.42 29.17 18.8 19.92 2.4 3.51 DEVC_ID='CEILING_HOLE_T4'/
&DEVC ID='CEILING_HOLE_T4', XYZ=28.795,19.36,3.5, QUANTITY='TEMPERATURE', SETPOINT=50.0, INITIAL_STATE=.FALSE. /
&HOLE XB= 39.67 40.42 18.8 19.92 2.4 3.51 DEVC_ID='CEILING_HOLE_T7'/
&HOLE XB= 39.67 40.42 27.05 28.17 2.4 3.51 DEVC_ID='CEILING_HOLE_T10'/
&DEVC ID='CEILING_HOLE_T7', XYZ=40.045,19.36,3.5, QUANTITY='TEMPERATURE', SETPOINT=50.0, INITIAL_STATE=.FALSE. /
&DEVC ID='CEILING_HOLE_T10', XYZ=40.045,27.61,3.5, QUANTITY='TEMPERATURE', SETPOINT=50.0, INITIAL_STATE=.FALSE. /
&HOLE XB= 58.05 58.8 18.8 19.92 2.4 3.51 DEVC_ID='CEILING_HOLE_T11'/
&DEVC ID='CEILING_HOLE_T11', XYZ=58.425,19.36,3.5, QUANTITY='TEMPERATURE', SETPOINT=50.0, INITIAL_STATE=.FALSE. /
&OBST XB=37.58,75.0,46.25,86.3,8.7,9.3 SURF_ID='ROOF_WAREHOUSE' / WAREHOUSE ROOF
&OBST XB=29.8,34.29,40.37,51.25,3.07,3.38 SURF_ID='ROOF_WORKSHOP' / WORKSHOP ROOF
&OBST XB=34.2,37.58,46.25,51.25,3.07,3.38 SURF_ID='ROOF_WORKSHOP' / WORKSHOP ROOF
&OBST XB=34.2,37.58,39.0,46.25,3.07,3.38 SURF_ID='ROOF_WORKSHOP' / WORKSHOP ROOF
&OBST XB=37.28,40.1,39.0,46.25,3.14,3.68 SURF_ID='ROOF_WORKSHOP' / WORKSHOP ROOF
&OBST XB=39.9,43.27,39.0,46.25,3.68,3.98 SURF_ID='ROOF_WORKSHOP' / WORKSHOP ROOF
&OBST XB=43.27,47.1,39.0,46.85,3.68,3.98 SURF_ID='ROOF_BREEZEWAY' / BREEZEWAY ROOF
&OBST XB=43.10,46.8,45.8,46.9,3.51,3.88 SURF_ID='ROOF_BREEZEWAY' / BREEZEWAY ROOF SUPP
&OBST XB=48.15,51.15,-6.55,29.8,4.3,4.7 SURF_ID6='ROOF_RIGHT','ROOF_RIGHT','BLOCK WALL','ROOF_RIGHT','ROOF_RIGHT','ROOF_RIGHT' / RIGHT SIDE ADDITION ROOF
&OBST XB=51.30,54.51,-6.55,29.8,4.15,4.45 SURF_ID6='ROOF_RIGHT','ROOF_RIGHT','BLOCK WALL','ROOF_RIGHT','ROOF_RIGHT','ROOF_RIGHT' / RIGHT SIDE ADDITION ROOF
&OBST XB=54.30,60.6,-6.55,29.8,3.885,4.26 SURF_ID6='ROOF_RIGHT','ROOF_RIGHT','BLOCK WALL','ROOF_RIGHT','ROOF_RIGHT','ROOF_RIGHT' / RIGHT SIDE ADDITION ROOF
&OBST XB=57.00,60.15,-6.55,29.8,3.85,4.0 SURF_ID6='ROOF_RIGHT','ROOF_RIGHT','BLOCK WALL','ROOF_RIGHT','ROOF_RIGHT','ROOF_RIGHT' / RIGHT SIDE ADDITION ROOF
&OBST XB=60.30,63.15,-6.55,29.8,3.51,4.0 SURF_ID6='ROOF_RIGHT','ROOF_RIGHT','BLOCK WALL','ROOF_RIGHT','ROOF_RIGHT','ROOF_RIGHT' / RIGHT SIDE ADDITION ROOF
&OBST XB=63.30,66.30,-6.55,29.8,3.54,4.0 SURF_ID6='ROOF_RIGHT','ROOF_RIGHT','BLOCK WALL','ROOF_RIGHT','ROOF_RIGHT','ROOF_RIGHT' / RIGHT SIDE ADDITION ROOF
&OBST XB=6.3,9.5,-6.55,29.3,4.3,4.7 SURF_ID6='ROOF_LEFT','ROOF_LEFT','BLOCK WALL','ROOF_LEFT','ROOF_LEFT','ROOF_LEFT' / LEFT SIDE ADDITION ROOF
&OBST XB=2.97,6.45,-6.55,29.3,4.15,4.64 SURF_ID6='ROOF_LEFT','ROOF_LEFT','BLOCK WALL','ROOF_LEFT','ROOF_LEFT','ROOF_LEFT' / LEFT SIDE ADDITION ROOF
&OBST XB=0.3,3.68,-6.55,29.3,4.0,4.25 SURF_ID6='ROOF_LEFT','ROOF_LEFT','BLOCK WALL','ROOF_LEFT','ROOF_LEFT','ROOF_LEFT' / LEFT SIDE ADDITION ROOF
&OBST XB=-2.97,0.45,-6.55,29.3,3.85,4.26 SURF_ID6='ROOF_LEFT','ROOF_LEFT','BLOCK WALL','ROOF_LEFT','ROOF_LEFT','ROOF_LEFT' / LEFT SIDE ADDITION ROOF
&OBST XB=-5.7,-2.55,-6.55,29.3,3.5,3.85 SURF_ID6='ROOF_LEFT','ROOF_LEFT','BLOCK WALL','ROOF_LEFT','ROOF_LEFT','ROOF_LEFT' / LEFT SIDE ADDITION ROOF